
---------- Begin Simulation Statistics ----------
sim_seconds                                  0.501894                       # Number of seconds simulated
sim_ticks                                501893819000                       # Number of ticks simulated
final_tick                               3738301037000                       # Number of ticks from beginning of simulation (restored from checkpoints and never reset)
sim_freq                                 1000000000000                       # Frequency of simulated ticks
host_inst_rate                                 102931                       # Simulator instruction rate (inst/s)
host_op_rate                                   136592                       # Simulator op (including micro ops) rate (op/s)
host_tick_rate                               57100798                       # Simulator tick rate (ticks/s)
host_mem_usage                                2467964                       # Number of bytes of host memory used
host_seconds                                  8789.61                       # Real time elapsed on the host
sim_insts                                   904725710                       # Number of instructions simulated
sim_ops                                    1200589026                       # Number of ops (including micro ops) simulated
system.voltage_domain.voltage                       1                       # Voltage in Volts
system.clk_domain.clock                          1000                       # Clock period in ticks
system.mem_ctrls.pwrStateResidencyTicks::UNDEFINED 3738301037000                       # Cumulative time (in ticks) in various power states
system.mem_ctrls.bytes_read::switch_cpus0.dtb.walker       139584                       # Number of bytes read from this memory
system.mem_ctrls.bytes_read::switch_cpus0.itb.walker        77824                       # Number of bytes read from this memory
system.mem_ctrls.bytes_read::switch_cpus0.inst     22795520                       # Number of bytes read from this memory
system.mem_ctrls.bytes_read::switch_cpus0.data     66838016                       # Number of bytes read from this memory
system.mem_ctrls.bytes_read::switch_cpus1.dtb.walker       327616                       # Number of bytes read from this memory
system.mem_ctrls.bytes_read::switch_cpus1.itb.walker         2752                       # Number of bytes read from this memory
system.mem_ctrls.bytes_read::switch_cpus1.inst       546048                       # Number of bytes read from this memory
system.mem_ctrls.bytes_read::switch_cpus1.data    449439424                       # Number of bytes read from this memory
system.mem_ctrls.bytes_read::switch_cpus2.dtb.walker        64960                       # Number of bytes read from this memory
system.mem_ctrls.bytes_read::switch_cpus2.itb.walker        28928                       # Number of bytes read from this memory
system.mem_ctrls.bytes_read::switch_cpus2.inst     13553792                       # Number of bytes read from this memory
system.mem_ctrls.bytes_read::switch_cpus2.data     34397056                       # Number of bytes read from this memory
system.mem_ctrls.bytes_read::switch_cpus3.dtb.walker        96512                       # Number of bytes read from this memory
system.mem_ctrls.bytes_read::switch_cpus3.itb.walker       109632                       # Number of bytes read from this memory
system.mem_ctrls.bytes_read::switch_cpus3.inst      7772416                       # Number of bytes read from this memory
system.mem_ctrls.bytes_read::switch_cpus3.data     31565184                       # Number of bytes read from this memory
system.mem_ctrls.bytes_read::total          627755264                       # Number of bytes read from this memory
system.mem_ctrls.bytes_inst_read::switch_cpus0.inst     22795520                       # Number of instructions bytes read from this memory
system.mem_ctrls.bytes_inst_read::switch_cpus1.inst       546048                       # Number of instructions bytes read from this memory
system.mem_ctrls.bytes_inst_read::switch_cpus2.inst     13553792                       # Number of instructions bytes read from this memory
system.mem_ctrls.bytes_inst_read::switch_cpus3.inst      7772416                       # Number of instructions bytes read from this memory
system.mem_ctrls.bytes_inst_read::total      44667776                       # Number of instructions bytes read from this memory
system.mem_ctrls.bytes_written::writebacks    534024448                       # Number of bytes written to this memory
system.mem_ctrls.bytes_written::total       534024448                       # Number of bytes written to this memory
system.mem_ctrls.num_reads::switch_cpus0.dtb.walker         2181                       # Number of read requests responded to by this memory
system.mem_ctrls.num_reads::switch_cpus0.itb.walker         1216                       # Number of read requests responded to by this memory
system.mem_ctrls.num_reads::switch_cpus0.inst       356180                       # Number of read requests responded to by this memory
system.mem_ctrls.num_reads::switch_cpus0.data      1044344                       # Number of read requests responded to by this memory
system.mem_ctrls.num_reads::switch_cpus1.dtb.walker         5119                       # Number of read requests responded to by this memory
system.mem_ctrls.num_reads::switch_cpus1.itb.walker           43                       # Number of read requests responded to by this memory
system.mem_ctrls.num_reads::switch_cpus1.inst         8532                       # Number of read requests responded to by this memory
system.mem_ctrls.num_reads::switch_cpus1.data      7022491                       # Number of read requests responded to by this memory
system.mem_ctrls.num_reads::switch_cpus2.dtb.walker         1015                       # Number of read requests responded to by this memory
system.mem_ctrls.num_reads::switch_cpus2.itb.walker          452                       # Number of read requests responded to by this memory
system.mem_ctrls.num_reads::switch_cpus2.inst       211778                       # Number of read requests responded to by this memory
system.mem_ctrls.num_reads::switch_cpus2.data       537454                       # Number of read requests responded to by this memory
system.mem_ctrls.num_reads::switch_cpus3.dtb.walker         1508                       # Number of read requests responded to by this memory
system.mem_ctrls.num_reads::switch_cpus3.itb.walker         1713                       # Number of read requests responded to by this memory
system.mem_ctrls.num_reads::switch_cpus3.inst       121444                       # Number of read requests responded to by this memory
system.mem_ctrls.num_reads::switch_cpus3.data       493206                       # Number of read requests responded to by this memory
system.mem_ctrls.num_reads::total             9808676                       # Number of read requests responded to by this memory
system.mem_ctrls.num_writes::writebacks       8344132                       # Number of write requests responded to by this memory
system.mem_ctrls.num_writes::total            8344132                       # Number of write requests responded to by this memory
system.mem_ctrls.bw_read::switch_cpus0.dtb.walker       278115                       # Total read bandwidth from this memory (bytes/s)
system.mem_ctrls.bw_read::switch_cpus0.itb.walker       155061                       # Total read bandwidth from this memory (bytes/s)
system.mem_ctrls.bw_read::switch_cpus0.inst     45419009                       # Total read bandwidth from this memory (bytes/s)
system.mem_ctrls.bw_read::switch_cpus0.data    133171626                       # Total read bandwidth from this memory (bytes/s)
system.mem_ctrls.bw_read::switch_cpus1.dtb.walker       652760                       # Total read bandwidth from this memory (bytes/s)
system.mem_ctrls.bw_read::switch_cpus1.itb.walker         5483                       # Total read bandwidth from this memory (bytes/s)
system.mem_ctrls.bw_read::switch_cpus1.inst      1087975                       # Total read bandwidth from this memory (bytes/s)
system.mem_ctrls.bw_read::switch_cpus1.data    895487067                       # Total read bandwidth from this memory (bytes/s)
system.mem_ctrls.bw_read::switch_cpus2.dtb.walker       129430                       # Total read bandwidth from this memory (bytes/s)
system.mem_ctrls.bw_read::switch_cpus2.itb.walker        57638                       # Total read bandwidth from this memory (bytes/s)
system.mem_ctrls.bw_read::switch_cpus2.inst     27005298                       # Total read bandwidth from this memory (bytes/s)
system.mem_ctrls.bw_read::switch_cpus2.data     68534528                       # Total read bandwidth from this memory (bytes/s)
system.mem_ctrls.bw_read::switch_cpus3.dtb.walker       192296                       # Total read bandwidth from this memory (bytes/s)
system.mem_ctrls.bw_read::switch_cpus3.itb.walker       218437                       # Total read bandwidth from this memory (bytes/s)
system.mem_ctrls.bw_read::switch_cpus3.inst     15486176                       # Total read bandwidth from this memory (bytes/s)
system.mem_ctrls.bw_read::switch_cpus3.data     62892155                       # Total read bandwidth from this memory (bytes/s)
system.mem_ctrls.bw_read::total            1250773052                       # Total read bandwidth from this memory (bytes/s)
system.mem_ctrls.bw_inst_read::switch_cpus0.inst     45419009                       # Instruction read bandwidth from this memory (bytes/s)
system.mem_ctrls.bw_inst_read::switch_cpus1.inst      1087975                       # Instruction read bandwidth from this memory (bytes/s)
system.mem_ctrls.bw_inst_read::switch_cpus2.inst     27005298                       # Instruction read bandwidth from this memory (bytes/s)
system.mem_ctrls.bw_inst_read::switch_cpus3.inst     15486176                       # Instruction read bandwidth from this memory (bytes/s)
system.mem_ctrls.bw_inst_read::total         88998458                       # Instruction read bandwidth from this memory (bytes/s)
system.mem_ctrls.bw_write::writebacks      1064018778                       # Write bandwidth from this memory (bytes/s)
system.mem_ctrls.bw_write::total           1064018778                       # Write bandwidth from this memory (bytes/s)
system.mem_ctrls.bw_total::writebacks      1064018778                       # Total bandwidth to/from this memory (bytes/s)
system.mem_ctrls.bw_total::switch_cpus0.dtb.walker       278115                       # Total bandwidth to/from this memory (bytes/s)
system.mem_ctrls.bw_total::switch_cpus0.itb.walker       155061                       # Total bandwidth to/from this memory (bytes/s)
system.mem_ctrls.bw_total::switch_cpus0.inst     45419009                       # Total bandwidth to/from this memory (bytes/s)
system.mem_ctrls.bw_total::switch_cpus0.data    133171626                       # Total bandwidth to/from this memory (bytes/s)
system.mem_ctrls.bw_total::switch_cpus1.dtb.walker       652760                       # Total bandwidth to/from this memory (bytes/s)
system.mem_ctrls.bw_total::switch_cpus1.itb.walker         5483                       # Total bandwidth to/from this memory (bytes/s)
system.mem_ctrls.bw_total::switch_cpus1.inst      1087975                       # Total bandwidth to/from this memory (bytes/s)
system.mem_ctrls.bw_total::switch_cpus1.data    895487067                       # Total bandwidth to/from this memory (bytes/s)
system.mem_ctrls.bw_total::switch_cpus2.dtb.walker       129430                       # Total bandwidth to/from this memory (bytes/s)
system.mem_ctrls.bw_total::switch_cpus2.itb.walker        57638                       # Total bandwidth to/from this memory (bytes/s)
system.mem_ctrls.bw_total::switch_cpus2.inst     27005298                       # Total bandwidth to/from this memory (bytes/s)
system.mem_ctrls.bw_total::switch_cpus2.data     68534528                       # Total bandwidth to/from this memory (bytes/s)
system.mem_ctrls.bw_total::switch_cpus3.dtb.walker       192296                       # Total bandwidth to/from this memory (bytes/s)
system.mem_ctrls.bw_total::switch_cpus3.itb.walker       218437                       # Total bandwidth to/from this memory (bytes/s)
system.mem_ctrls.bw_total::switch_cpus3.inst     15486176                       # Total bandwidth to/from this memory (bytes/s)
system.mem_ctrls.bw_total::switch_cpus3.data     62892155                       # Total bandwidth to/from this memory (bytes/s)
system.mem_ctrls.bw_total::total           2314791831                       # Total bandwidth to/from this memory (bytes/s)
system.mem_ctrls.readReqs                     9808675                       # Number of read requests accepted
system.mem_ctrls.writeReqs                    8344132                       # Number of write requests accepted
system.mem_ctrls.readBursts                   9808675                       # Number of DRAM read bursts, including those serviced by the write queue
system.mem_ctrls.writeBursts                  8344132                       # Number of DRAM write bursts, including those merged in the write queue
system.mem_ctrls.bytesReadDRAM              627633216                       # Total number of bytes read from DRAM
system.mem_ctrls.bytesReadWrQ                  121984                       # Total number of bytes read from write queue
system.mem_ctrls.bytesWritten               534022528                       # Total number of bytes written to DRAM
system.mem_ctrls.bytesReadSys               627755200                       # Total read bytes from the system interface side
system.mem_ctrls.bytesWrittenSys            534024448                       # Total written bytes from the system interface side
system.mem_ctrls.servicedByWrQ                   1906                       # Number of DRAM read bursts serviced by the write queue
system.mem_ctrls.mergedWrBursts                     0                       # Number of DRAM write bursts merged with an existing one
system.mem_ctrls.neitherReadNorWriteReqs            0                       # Number of requests that are neither read nor write
system.mem_ctrls.perBankRdBursts::0            526043                       # Per bank write bursts
system.mem_ctrls.perBankRdBursts::1            571495                       # Per bank write bursts
system.mem_ctrls.perBankRdBursts::2            655987                       # Per bank write bursts
system.mem_ctrls.perBankRdBursts::3            604612                       # Per bank write bursts
system.mem_ctrls.perBankRdBursts::4            629764                       # Per bank write bursts
system.mem_ctrls.perBankRdBursts::5            587148                       # Per bank write bursts
system.mem_ctrls.perBankRdBursts::6            614186                       # Per bank write bursts
system.mem_ctrls.perBankRdBursts::7            729523                       # Per bank write bursts
system.mem_ctrls.perBankRdBursts::8            649682                       # Per bank write bursts
system.mem_ctrls.perBankRdBursts::9            729381                       # Per bank write bursts
system.mem_ctrls.perBankRdBursts::10           678440                       # Per bank write bursts
system.mem_ctrls.perBankRdBursts::11           619631                       # Per bank write bursts
system.mem_ctrls.perBankRdBursts::12           548122                       # Per bank write bursts
system.mem_ctrls.perBankRdBursts::13           536663                       # Per bank write bursts
system.mem_ctrls.perBankRdBursts::14           579269                       # Per bank write bursts
system.mem_ctrls.perBankRdBursts::15           546823                       # Per bank write bursts
system.mem_ctrls.perBankWrBursts::0            495030                       # Per bank write bursts
system.mem_ctrls.perBankWrBursts::1            505619                       # Per bank write bursts
system.mem_ctrls.perBankWrBursts::2            526366                       # Per bank write bursts
system.mem_ctrls.perBankWrBursts::3            521383                       # Per bank write bursts
system.mem_ctrls.perBankWrBursts::4            526187                       # Per bank write bursts
system.mem_ctrls.perBankWrBursts::5            520845                       # Per bank write bursts
system.mem_ctrls.perBankWrBursts::6            524771                       # Per bank write bursts
system.mem_ctrls.perBankWrBursts::7            546948                       # Per bank write bursts
system.mem_ctrls.perBankWrBursts::8            543973                       # Per bank write bursts
system.mem_ctrls.perBankWrBursts::9            545676                       # Per bank write bursts
system.mem_ctrls.perBankWrBursts::10           539751                       # Per bank write bursts
system.mem_ctrls.perBankWrBursts::11           531089                       # Per bank write bursts
system.mem_ctrls.perBankWrBursts::12           500189                       # Per bank write bursts
system.mem_ctrls.perBankWrBursts::13           501982                       # Per bank write bursts
system.mem_ctrls.perBankWrBursts::14           512722                       # Per bank write bursts
system.mem_ctrls.perBankWrBursts::15           501571                       # Per bank write bursts
system.mem_ctrls.numRdRetry                         0                       # Number of times read queue was full causing retry
system.mem_ctrls.numWrRetry                         7                       # Number of times write queue was full causing retry
system.mem_ctrls.totGap                  501893810500                       # Total gap between requests
system.mem_ctrls.readPktSize::0                     0                       # Read request sizes (log2)
system.mem_ctrls.readPktSize::1                     0                       # Read request sizes (log2)
system.mem_ctrls.readPktSize::2                     0                       # Read request sizes (log2)
system.mem_ctrls.readPktSize::3                     0                       # Read request sizes (log2)
system.mem_ctrls.readPktSize::4                     0                       # Read request sizes (log2)
system.mem_ctrls.readPktSize::5                     0                       # Read request sizes (log2)
system.mem_ctrls.readPktSize::6               9808675                       # Read request sizes (log2)
system.mem_ctrls.writePktSize::0                    0                       # Write request sizes (log2)
system.mem_ctrls.writePktSize::1                    0                       # Write request sizes (log2)
system.mem_ctrls.writePktSize::2                    0                       # Write request sizes (log2)
system.mem_ctrls.writePktSize::3                    0                       # Write request sizes (log2)
system.mem_ctrls.writePktSize::4                    0                       # Write request sizes (log2)
system.mem_ctrls.writePktSize::5                    0                       # Write request sizes (log2)
system.mem_ctrls.writePktSize::6              8344132                       # Write request sizes (log2)
system.mem_ctrls.rdQLenPdf::0                 4355561                       # What read queue length does an incoming req see
system.mem_ctrls.rdQLenPdf::1                 3986964                       # What read queue length does an incoming req see
system.mem_ctrls.rdQLenPdf::2                  981840                       # What read queue length does an incoming req see
system.mem_ctrls.rdQLenPdf::3                  355633                       # What read queue length does an incoming req see
system.mem_ctrls.rdQLenPdf::4                   82105                       # What read queue length does an incoming req see
system.mem_ctrls.rdQLenPdf::5                   35905                       # What read queue length does an incoming req see
system.mem_ctrls.rdQLenPdf::6                    5662                       # What read queue length does an incoming req see
system.mem_ctrls.rdQLenPdf::7                    2313                       # What read queue length does an incoming req see
system.mem_ctrls.rdQLenPdf::8                     579                       # What read queue length does an incoming req see
system.mem_ctrls.rdQLenPdf::9                     193                       # What read queue length does an incoming req see
system.mem_ctrls.rdQLenPdf::10                     12                       # What read queue length does an incoming req see
system.mem_ctrls.rdQLenPdf::11                      2                       # What read queue length does an incoming req see
system.mem_ctrls.rdQLenPdf::12                      0                       # What read queue length does an incoming req see
system.mem_ctrls.rdQLenPdf::13                      0                       # What read queue length does an incoming req see
system.mem_ctrls.rdQLenPdf::14                      0                       # What read queue length does an incoming req see
system.mem_ctrls.rdQLenPdf::15                      0                       # What read queue length does an incoming req see
system.mem_ctrls.rdQLenPdf::16                      0                       # What read queue length does an incoming req see
system.mem_ctrls.rdQLenPdf::17                      0                       # What read queue length does an incoming req see
system.mem_ctrls.rdQLenPdf::18                      0                       # What read queue length does an incoming req see
system.mem_ctrls.rdQLenPdf::19                      0                       # What read queue length does an incoming req see
system.mem_ctrls.rdQLenPdf::20                      0                       # What read queue length does an incoming req see
system.mem_ctrls.rdQLenPdf::21                      0                       # What read queue length does an incoming req see
system.mem_ctrls.rdQLenPdf::22                      0                       # What read queue length does an incoming req see
system.mem_ctrls.rdQLenPdf::23                      0                       # What read queue length does an incoming req see
system.mem_ctrls.rdQLenPdf::24                      0                       # What read queue length does an incoming req see
system.mem_ctrls.rdQLenPdf::25                      0                       # What read queue length does an incoming req see
system.mem_ctrls.rdQLenPdf::26                      0                       # What read queue length does an incoming req see
system.mem_ctrls.rdQLenPdf::27                      0                       # What read queue length does an incoming req see
system.mem_ctrls.rdQLenPdf::28                      0                       # What read queue length does an incoming req see
system.mem_ctrls.rdQLenPdf::29                      0                       # What read queue length does an incoming req see
system.mem_ctrls.rdQLenPdf::30                      0                       # What read queue length does an incoming req see
system.mem_ctrls.rdQLenPdf::31                      0                       # What read queue length does an incoming req see
system.mem_ctrls.wrQLenPdf::0                       0                       # What write queue length does an incoming req see
system.mem_ctrls.wrQLenPdf::1                       0                       # What write queue length does an incoming req see
system.mem_ctrls.wrQLenPdf::2                       1                       # What write queue length does an incoming req see
system.mem_ctrls.wrQLenPdf::3                       1                       # What write queue length does an incoming req see
system.mem_ctrls.wrQLenPdf::4                       1                       # What write queue length does an incoming req see
system.mem_ctrls.wrQLenPdf::5                       1                       # What write queue length does an incoming req see
system.mem_ctrls.wrQLenPdf::6                       1                       # What write queue length does an incoming req see
system.mem_ctrls.wrQLenPdf::7                       1                       # What write queue length does an incoming req see
system.mem_ctrls.wrQLenPdf::8                       1                       # What write queue length does an incoming req see
system.mem_ctrls.wrQLenPdf::9                       1                       # What write queue length does an incoming req see
system.mem_ctrls.wrQLenPdf::10                      1                       # What write queue length does an incoming req see
system.mem_ctrls.wrQLenPdf::11                      1                       # What write queue length does an incoming req see
system.mem_ctrls.wrQLenPdf::12                      1                       # What write queue length does an incoming req see
system.mem_ctrls.wrQLenPdf::13                      1                       # What write queue length does an incoming req see
system.mem_ctrls.wrQLenPdf::14                      1                       # What write queue length does an incoming req see
system.mem_ctrls.wrQLenPdf::15                  14830                       # What write queue length does an incoming req see
system.mem_ctrls.wrQLenPdf::16                  16512                       # What write queue length does an incoming req see
system.mem_ctrls.wrQLenPdf::17                 194442                       # What write queue length does an incoming req see
system.mem_ctrls.wrQLenPdf::18                 378569                       # What write queue length does an incoming req see
system.mem_ctrls.wrQLenPdf::19                 465027                       # What write queue length does an incoming req see
system.mem_ctrls.wrQLenPdf::20                 506554                       # What write queue length does an incoming req see
system.mem_ctrls.wrQLenPdf::21                 523987                       # What write queue length does an incoming req see
system.mem_ctrls.wrQLenPdf::22                 535305                       # What write queue length does an incoming req see
system.mem_ctrls.wrQLenPdf::23                 545118                       # What write queue length does an incoming req see
system.mem_ctrls.wrQLenPdf::24                 550307                       # What write queue length does an incoming req see
system.mem_ctrls.wrQLenPdf::25                 556461                       # What write queue length does an incoming req see
system.mem_ctrls.wrQLenPdf::26                 565353                       # What write queue length does an incoming req see
system.mem_ctrls.wrQLenPdf::27                 559068                       # What write queue length does an incoming req see
system.mem_ctrls.wrQLenPdf::28                 566764                       # What write queue length does an incoming req see
system.mem_ctrls.wrQLenPdf::29                 618606                       # What write queue length does an incoming req see
system.mem_ctrls.wrQLenPdf::30                 580529                       # What write queue length does an incoming req see
system.mem_ctrls.wrQLenPdf::31                 627257                       # What write queue length does an incoming req see
system.mem_ctrls.wrQLenPdf::32                 527674                       # What write queue length does an incoming req see
system.mem_ctrls.wrQLenPdf::33                   4568                       # What write queue length does an incoming req see
system.mem_ctrls.wrQLenPdf::34                   1870                       # What write queue length does an incoming req see
system.mem_ctrls.wrQLenPdf::35                    949                       # What write queue length does an incoming req see
system.mem_ctrls.wrQLenPdf::36                    647                       # What write queue length does an incoming req see
system.mem_ctrls.wrQLenPdf::37                    457                       # What write queue length does an incoming req see
system.mem_ctrls.wrQLenPdf::38                    345                       # What write queue length does an incoming req see
system.mem_ctrls.wrQLenPdf::39                    293                       # What write queue length does an incoming req see
system.mem_ctrls.wrQLenPdf::40                    254                       # What write queue length does an incoming req see
system.mem_ctrls.wrQLenPdf::41                    252                       # What write queue length does an incoming req see
system.mem_ctrls.wrQLenPdf::42                    187                       # What write queue length does an incoming req see
system.mem_ctrls.wrQLenPdf::43                    172                       # What write queue length does an incoming req see
system.mem_ctrls.wrQLenPdf::44                    203                       # What write queue length does an incoming req see
system.mem_ctrls.wrQLenPdf::45                    186                       # What write queue length does an incoming req see
system.mem_ctrls.wrQLenPdf::46                    184                       # What write queue length does an incoming req see
system.mem_ctrls.wrQLenPdf::47                    151                       # What write queue length does an incoming req see
system.mem_ctrls.wrQLenPdf::48                    130                       # What write queue length does an incoming req see
system.mem_ctrls.wrQLenPdf::49                    107                       # What write queue length does an incoming req see
system.mem_ctrls.wrQLenPdf::50                    125                       # What write queue length does an incoming req see
system.mem_ctrls.wrQLenPdf::51                     96                       # What write queue length does an incoming req see
system.mem_ctrls.wrQLenPdf::52                    101                       # What write queue length does an incoming req see
system.mem_ctrls.wrQLenPdf::53                     73                       # What write queue length does an incoming req see
system.mem_ctrls.wrQLenPdf::54                     80                       # What write queue length does an incoming req see
system.mem_ctrls.wrQLenPdf::55                     69                       # What write queue length does an incoming req see
system.mem_ctrls.wrQLenPdf::56                     48                       # What write queue length does an incoming req see
system.mem_ctrls.wrQLenPdf::57                     41                       # What write queue length does an incoming req see
system.mem_ctrls.wrQLenPdf::58                     37                       # What write queue length does an incoming req see
system.mem_ctrls.wrQLenPdf::59                     27                       # What write queue length does an incoming req see
system.mem_ctrls.wrQLenPdf::60                     29                       # What write queue length does an incoming req see
system.mem_ctrls.wrQLenPdf::61                     34                       # What write queue length does an incoming req see
system.mem_ctrls.wrQLenPdf::62                     15                       # What write queue length does an incoming req see
system.mem_ctrls.wrQLenPdf::63                     26                       # What write queue length does an incoming req see
system.mem_ctrls.bytesPerActivate::samples      4068536                       # Bytes accessed per row activation
system.mem_ctrls.bytesPerActivate::mean    285.521963                       # Bytes accessed per row activation
system.mem_ctrls.bytesPerActivate::gmean   175.518590                       # Bytes accessed per row activation
system.mem_ctrls.bytesPerActivate::stdev   291.180004                       # Bytes accessed per row activation
system.mem_ctrls.bytesPerActivate::0-127      1528670     37.57%     37.57% # Bytes accessed per row activation
system.mem_ctrls.bytesPerActivate::128-255       953513     23.44%     61.01% # Bytes accessed per row activation
system.mem_ctrls.bytesPerActivate::256-383       398931      9.81%     70.81% # Bytes accessed per row activation
system.mem_ctrls.bytesPerActivate::384-511       282124      6.93%     77.75% # Bytes accessed per row activation
system.mem_ctrls.bytesPerActivate::512-639       233701      5.74%     83.49% # Bytes accessed per row activation
system.mem_ctrls.bytesPerActivate::640-767       178842      4.40%     87.89% # Bytes accessed per row activation
system.mem_ctrls.bytesPerActivate::768-895       143116      3.52%     91.41% # Bytes accessed per row activation
system.mem_ctrls.bytesPerActivate::896-1023       127065      3.12%     94.53% # Bytes accessed per row activation
system.mem_ctrls.bytesPerActivate::1024-1151       222574      5.47%    100.00% # Bytes accessed per row activation
system.mem_ctrls.bytesPerActivate::total      4068536                       # Bytes accessed per row activation
system.mem_ctrls.rdPerTurnAround::samples       518267                       # Reads before turning the bus around for writes
system.mem_ctrls.rdPerTurnAround::mean      18.950869                       # Reads before turning the bus around for writes
system.mem_ctrls.rdPerTurnAround::stdev     26.086935                       # Reads before turning the bus around for writes
system.mem_ctrls.rdPerTurnAround::0-1023       518266    100.00%    100.00% # Reads before turning the bus around for writes
system.mem_ctrls.rdPerTurnAround::18432-19455            1      0.00%    100.00% # Reads before turning the bus around for writes
system.mem_ctrls.rdPerTurnAround::total        518267                       # Reads before turning the bus around for writes
system.mem_ctrls.wrPerTurnAround::samples       518267                       # Writes before turning the bus around for reads
system.mem_ctrls.wrPerTurnAround::mean      16.100006                       # Writes before turning the bus around for reads
system.mem_ctrls.wrPerTurnAround::gmean     16.086108                       # Writes before turning the bus around for reads
system.mem_ctrls.wrPerTurnAround::stdev      0.963464                       # Writes before turning the bus around for reads
system.mem_ctrls.wrPerTurnAround::16-19        516361     99.63%     99.63% # Writes before turning the bus around for reads
system.mem_ctrls.wrPerTurnAround::20-23          1490      0.29%     99.92% # Writes before turning the bus around for reads
system.mem_ctrls.wrPerTurnAround::24-27            96      0.02%     99.94% # Writes before turning the bus around for reads
system.mem_ctrls.wrPerTurnAround::28-31            76      0.01%     99.95% # Writes before turning the bus around for reads
system.mem_ctrls.wrPerTurnAround::32-35            97      0.02%     99.97% # Writes before turning the bus around for reads
system.mem_ctrls.wrPerTurnAround::36-39            24      0.00%     99.98% # Writes before turning the bus around for reads
system.mem_ctrls.wrPerTurnAround::40-43            25      0.00%     99.98% # Writes before turning the bus around for reads
system.mem_ctrls.wrPerTurnAround::44-47            10      0.00%     99.98% # Writes before turning the bus around for reads
system.mem_ctrls.wrPerTurnAround::48-51            16      0.00%     99.99% # Writes before turning the bus around for reads
system.mem_ctrls.wrPerTurnAround::52-55             5      0.00%     99.99% # Writes before turning the bus around for reads
system.mem_ctrls.wrPerTurnAround::56-59             6      0.00%     99.99% # Writes before turning the bus around for reads
system.mem_ctrls.wrPerTurnAround::60-63             6      0.00%     99.99% # Writes before turning the bus around for reads
system.mem_ctrls.wrPerTurnAround::64-67            34      0.01%    100.00% # Writes before turning the bus around for reads
system.mem_ctrls.wrPerTurnAround::68-71             5      0.00%    100.00% # Writes before turning the bus around for reads
system.mem_ctrls.wrPerTurnAround::72-75             3      0.00%    100.00% # Writes before turning the bus around for reads
system.mem_ctrls.wrPerTurnAround::76-79             1      0.00%    100.00% # Writes before turning the bus around for reads
system.mem_ctrls.wrPerTurnAround::80-83             3      0.00%    100.00% # Writes before turning the bus around for reads
system.mem_ctrls.wrPerTurnAround::92-95             1      0.00%    100.00% # Writes before turning the bus around for reads
system.mem_ctrls.wrPerTurnAround::96-99             1      0.00%    100.00% # Writes before turning the bus around for reads
system.mem_ctrls.wrPerTurnAround::108-111            3      0.00%    100.00% # Writes before turning the bus around for reads
system.mem_ctrls.wrPerTurnAround::128-131            1      0.00%    100.00% # Writes before turning the bus around for reads
system.mem_ctrls.wrPerTurnAround::140-143            1      0.00%    100.00% # Writes before turning the bus around for reads
system.mem_ctrls.wrPerTurnAround::152-155            1      0.00%    100.00% # Writes before turning the bus around for reads
system.mem_ctrls.wrPerTurnAround::192-195            1      0.00%    100.00% # Writes before turning the bus around for reads
system.mem_ctrls.wrPerTurnAround::total        518267                       # Writes before turning the bus around for reads
system.mem_ctrls.totQLat                 292206615505                       # Total ticks spent queuing
system.mem_ctrls.totMemAccLat            476083534255                       # Total ticks spent from burst creation until serviced by the DRAM
system.mem_ctrls.totBusLat                49033845000                       # Total ticks spent in databus transfers
system.mem_ctrls.avgQLat                     29796.42                       # Average queueing delay per DRAM burst
system.mem_ctrls.avgBusLat                    5000.00                       # Average bus latency per DRAM burst
system.mem_ctrls.avgMemAccLat                48546.42                       # Average memory access latency per DRAM burst
system.mem_ctrls.avgRdBW                      1250.53                       # Average DRAM read bandwidth in MiByte/s
system.mem_ctrls.avgWrBW                      1064.01                       # Average achieved write bandwidth in MiByte/s
system.mem_ctrls.avgRdBWSys                   1250.77                       # Average system read bandwidth in MiByte/s
system.mem_ctrls.avgWrBWSys                   1064.02                       # Average system write bandwidth in MiByte/s
system.mem_ctrls.peakBW                      12800.00                       # Theoretical peak bandwidth in MiByte/s
system.mem_ctrls.busUtil                        18.08                       # Data bus utilization in percentage
system.mem_ctrls.busUtilRead                     9.77                       # Data bus utilization in percentage for reads
system.mem_ctrls.busUtilWrite                    8.31                       # Data bus utilization in percentage for writes
system.mem_ctrls.avgRdQLen                       2.08                       # Average read queue length when enqueuing
system.mem_ctrls.avgWrQLen                      26.83                       # Average write queue length when enqueuing
system.mem_ctrls.readRowHits                  8033097                       # Number of row buffer hits during reads
system.mem_ctrls.writeRowHits                 6049237                       # Number of row buffer hits during writes
system.mem_ctrls.readRowHitRate                 81.91                       # Row buffer hit rate for reads
system.mem_ctrls.writeRowHitRate                72.50                       # Row buffer hit rate for writes
system.mem_ctrls.avgGap                      27648.28                       # Average gap between requests
system.mem_ctrls.pageHitRate                    77.58                       # Row buffer hit rate, read and write combined
system.mem_ctrls_0.actEnergy              15360400440                       # Energy for activate commands per rank (pJ)
system.mem_ctrls_0.preEnergy               8381170875                       # Energy for precharge commands per rank (pJ)
system.mem_ctrls_0.readEnergy             38422589400                       # Energy for read commands per rank (pJ)
system.mem_ctrls_0.writeEnergy            27003119040                       # Energy for write commands per rank (pJ)
system.mem_ctrls_0.refreshEnergy          32817885360                       # Energy for refresh commands per rank (pJ)
system.mem_ctrls_0.actBackEnergy         310139928945                       # Energy for active background per rank (pJ)
system.mem_ctrls_0.preBackEnergy          29420286000                       # Energy for precharge background per rank (pJ)
system.mem_ctrls_0.totalEnergy           461545380060                       # Total energy per rank (pJ)
system.mem_ctrls_0.averagePower            918.580971                       # Core power per rank (mW)
system.mem_ctrls_0.memoryStateTime::IDLE  45346282250                       # Time in different power states
system.mem_ctrls_0.memoryStateTime::REF   16759340000                       # Time in different power states
system.mem_ctrls_0.memoryStateTime::PRE_PDN            0                       # Time in different power states
system.mem_ctrls_0.memoryStateTime::ACT  439787380000                       # Time in different power states
system.mem_ctrls_0.memoryStateTime::ACT_PDN            0                       # Time in different power states
system.mem_ctrls_1.actEnergy              15430474080                       # Energy for activate commands per rank (pJ)
system.mem_ctrls_1.preEnergy               8419405500                       # Energy for precharge commands per rank (pJ)
system.mem_ctrls_1.readEnergy             38185812600                       # Energy for read commands per rank (pJ)
system.mem_ctrls_1.writeEnergy            27066551760                       # Energy for write commands per rank (pJ)
system.mem_ctrls_1.refreshEnergy          32817885360                       # Energy for refresh commands per rank (pJ)
system.mem_ctrls_1.actBackEnergy         309650292675                       # Energy for active background per rank (pJ)
system.mem_ctrls_1.preBackEnergy          29849827500                       # Energy for precharge background per rank (pJ)
system.mem_ctrls_1.totalEnergy           461420249475                       # Total energy per rank (pJ)
system.mem_ctrls_1.averagePower            918.331823                       # Core power per rank (mW)
system.mem_ctrls_1.memoryStateTime::IDLE  46045700000                       # Time in different power states
system.mem_ctrls_1.memoryStateTime::REF   16759340000                       # Time in different power states
system.mem_ctrls_1.memoryStateTime::PRE_PDN            0                       # Time in different power states
system.mem_ctrls_1.memoryStateTime::ACT  439088906250                       # Time in different power states
system.mem_ctrls_1.memoryStateTime::ACT_PDN            0                       # Time in different power states
system.realview.nvmem.pwrStateResidencyTicks::UNDEFINED 3738301037000                       # Cumulative time (in ticks) in various power states
system.realview.vram.pwrStateResidencyTicks::UNDEFINED 3738301037000                       # Cumulative time (in ticks) in various power states
system.pwrStateResidencyTicks::UNDEFINED 3738301037000                       # Cumulative time (in ticks) in various power states
system.bridge.pwrStateResidencyTicks::UNDEFINED 3738301037000                       # Cumulative time (in ticks) in various power states
system.cf0.dma_read_full_pages                      0                       # Number of full page size DMA reads (not PRD).
system.cf0.dma_read_bytes                           0                       # Number of bytes transfered via DMA reads (not PRD).
system.cf0.dma_read_txs                             0                       # Number of DMA read transactions (not PRD).
system.cf0.dma_write_full_pages                   349                       # Number of full page size DMA writes.
system.cf0.dma_write_bytes                    1456128                       # Number of bytes transfered via DMA writes.
system.cf0.dma_write_txs                          372                       # Number of DMA write transactions.
system.cpu_voltage_domain.voltage                   1                       # Voltage in Volts
system.cpu_clk_domain.clock                       500                       # Clock period in ticks
system.cpu0.dstage2_mmu.stage2_tlb.walker.pwrStateResidencyTicks::UNDEFINED 3738301037000                       # Cumulative time (in ticks) in various power states
system.cpu0.dstage2_mmu.stage2_tlb.walker.walks            0                       # Table walker walks requested
system.cpu0.dstage2_mmu.stage2_tlb.walker.walkRequestOrigin_Requested::Data            0                       # Table walker requests started/completed, data/inst
system.cpu0.dstage2_mmu.stage2_tlb.walker.walkRequestOrigin_Requested::Inst            0                       # Table walker requests started/completed, data/inst
system.cpu0.dstage2_mmu.stage2_tlb.walker.walkRequestOrigin_Requested::total            0                       # Table walker requests started/completed, data/inst
system.cpu0.dstage2_mmu.stage2_tlb.walker.walkRequestOrigin_Completed::Data            0                       # Table walker requests started/completed, data/inst
system.cpu0.dstage2_mmu.stage2_tlb.walker.walkRequestOrigin_Completed::Inst            0                       # Table walker requests started/completed, data/inst
system.cpu0.dstage2_mmu.stage2_tlb.walker.walkRequestOrigin_Completed::total            0                       # Table walker requests started/completed, data/inst
system.cpu0.dstage2_mmu.stage2_tlb.walker.walkRequestOrigin::total            0                       # Table walker requests started/completed, data/inst
system.cpu0.dstage2_mmu.stage2_tlb.inst_hits            0                       # ITB inst hits
system.cpu0.dstage2_mmu.stage2_tlb.inst_misses            0                       # ITB inst misses
system.cpu0.dstage2_mmu.stage2_tlb.read_hits            0                       # DTB read hits
system.cpu0.dstage2_mmu.stage2_tlb.read_misses            0                       # DTB read misses
system.cpu0.dstage2_mmu.stage2_tlb.write_hits            0                       # DTB write hits
system.cpu0.dstage2_mmu.stage2_tlb.write_misses            0                       # DTB write misses
system.cpu0.dstage2_mmu.stage2_tlb.flush_tlb            0                       # Number of times complete TLB was flushed
system.cpu0.dstage2_mmu.stage2_tlb.flush_tlb_mva            0                       # Number of times TLB was flushed by MVA
system.cpu0.dstage2_mmu.stage2_tlb.flush_tlb_mva_asid            0                       # Number of times TLB was flushed by MVA & ASID
system.cpu0.dstage2_mmu.stage2_tlb.flush_tlb_asid            0                       # Number of times TLB was flushed by ASID
system.cpu0.dstage2_mmu.stage2_tlb.flush_entries            0                       # Number of entries that have been flushed from TLB
system.cpu0.dstage2_mmu.stage2_tlb.align_faults            0                       # Number of TLB faults due to alignment restrictions
system.cpu0.dstage2_mmu.stage2_tlb.prefetch_faults            0                       # Number of TLB faults due to prefetch
system.cpu0.dstage2_mmu.stage2_tlb.domain_faults            0                       # Number of TLB faults due to domain restrictions
system.cpu0.dstage2_mmu.stage2_tlb.perms_faults            0                       # Number of TLB faults due to permissions restrictions
system.cpu0.dstage2_mmu.stage2_tlb.read_accesses            0                       # DTB read accesses
system.cpu0.dstage2_mmu.stage2_tlb.write_accesses            0                       # DTB write accesses
system.cpu0.dstage2_mmu.stage2_tlb.inst_accesses            0                       # ITB inst accesses
system.cpu0.dstage2_mmu.stage2_tlb.hits             0                       # DTB hits
system.cpu0.dstage2_mmu.stage2_tlb.misses            0                       # DTB misses
system.cpu0.dstage2_mmu.stage2_tlb.accesses            0                       # DTB accesses
system.cpu0.dtb.walker.pwrStateResidencyTicks::UNDEFINED 3738301037000                       # Cumulative time (in ticks) in various power states
system.cpu0.dtb.walker.walks                        0                       # Table walker walks requested
system.cpu0.dtb.walker.walkRequestOrigin_Requested::Data            0                       # Table walker requests started/completed, data/inst
system.cpu0.dtb.walker.walkRequestOrigin_Requested::Inst            0                       # Table walker requests started/completed, data/inst
system.cpu0.dtb.walker.walkRequestOrigin_Requested::total            0                       # Table walker requests started/completed, data/inst
system.cpu0.dtb.walker.walkRequestOrigin_Completed::Data            0                       # Table walker requests started/completed, data/inst
system.cpu0.dtb.walker.walkRequestOrigin_Completed::Inst            0                       # Table walker requests started/completed, data/inst
system.cpu0.dtb.walker.walkRequestOrigin_Completed::total            0                       # Table walker requests started/completed, data/inst
system.cpu0.dtb.walker.walkRequestOrigin::total            0                       # Table walker requests started/completed, data/inst
system.cpu0.dtb.inst_hits                           0                       # ITB inst hits
system.cpu0.dtb.inst_misses                         0                       # ITB inst misses
system.cpu0.dtb.read_hits                           0                       # DTB read hits
system.cpu0.dtb.read_misses                         0                       # DTB read misses
system.cpu0.dtb.write_hits                          0                       # DTB write hits
system.cpu0.dtb.write_misses                        0                       # DTB write misses
system.cpu0.dtb.flush_tlb                           0                       # Number of times complete TLB was flushed
system.cpu0.dtb.flush_tlb_mva                       0                       # Number of times TLB was flushed by MVA
system.cpu0.dtb.flush_tlb_mva_asid                  0                       # Number of times TLB was flushed by MVA & ASID
system.cpu0.dtb.flush_tlb_asid                      0                       # Number of times TLB was flushed by ASID
system.cpu0.dtb.flush_entries                       0                       # Number of entries that have been flushed from TLB
system.cpu0.dtb.align_faults                        0                       # Number of TLB faults due to alignment restrictions
system.cpu0.dtb.prefetch_faults                     0                       # Number of TLB faults due to prefetch
system.cpu0.dtb.domain_faults                       0                       # Number of TLB faults due to domain restrictions
system.cpu0.dtb.perms_faults                        0                       # Number of TLB faults due to permissions restrictions
system.cpu0.dtb.read_accesses                       0                       # DTB read accesses
system.cpu0.dtb.write_accesses                      0                       # DTB write accesses
system.cpu0.dtb.inst_accesses                       0                       # ITB inst accesses
system.cpu0.dtb.hits                                0                       # DTB hits
system.cpu0.dtb.misses                              0                       # DTB misses
system.cpu0.dtb.accesses                            0                       # DTB accesses
system.cpu0.istage2_mmu.stage2_tlb.walker.pwrStateResidencyTicks::UNDEFINED 3738301037000                       # Cumulative time (in ticks) in various power states
system.cpu0.istage2_mmu.stage2_tlb.walker.walks            0                       # Table walker walks requested
system.cpu0.istage2_mmu.stage2_tlb.walker.walkRequestOrigin_Requested::Data            0                       # Table walker requests started/completed, data/inst
system.cpu0.istage2_mmu.stage2_tlb.walker.walkRequestOrigin_Requested::Inst            0                       # Table walker requests started/completed, data/inst
system.cpu0.istage2_mmu.stage2_tlb.walker.walkRequestOrigin_Requested::total            0                       # Table walker requests started/completed, data/inst
system.cpu0.istage2_mmu.stage2_tlb.walker.walkRequestOrigin_Completed::Data            0                       # Table walker requests started/completed, data/inst
system.cpu0.istage2_mmu.stage2_tlb.walker.walkRequestOrigin_Completed::Inst            0                       # Table walker requests started/completed, data/inst
system.cpu0.istage2_mmu.stage2_tlb.walker.walkRequestOrigin_Completed::total            0                       # Table walker requests started/completed, data/inst
system.cpu0.istage2_mmu.stage2_tlb.walker.walkRequestOrigin::total            0                       # Table walker requests started/completed, data/inst
system.cpu0.istage2_mmu.stage2_tlb.inst_hits            0                       # ITB inst hits
system.cpu0.istage2_mmu.stage2_tlb.inst_misses            0                       # ITB inst misses
system.cpu0.istage2_mmu.stage2_tlb.read_hits            0                       # DTB read hits
system.cpu0.istage2_mmu.stage2_tlb.read_misses            0                       # DTB read misses
system.cpu0.istage2_mmu.stage2_tlb.write_hits            0                       # DTB write hits
system.cpu0.istage2_mmu.stage2_tlb.write_misses            0                       # DTB write misses
system.cpu0.istage2_mmu.stage2_tlb.flush_tlb            0                       # Number of times complete TLB was flushed
system.cpu0.istage2_mmu.stage2_tlb.flush_tlb_mva            0                       # Number of times TLB was flushed by MVA
system.cpu0.istage2_mmu.stage2_tlb.flush_tlb_mva_asid            0                       # Number of times TLB was flushed by MVA & ASID
system.cpu0.istage2_mmu.stage2_tlb.flush_tlb_asid            0                       # Number of times TLB was flushed by ASID
system.cpu0.istage2_mmu.stage2_tlb.flush_entries            0                       # Number of entries that have been flushed from TLB
system.cpu0.istage2_mmu.stage2_tlb.align_faults            0                       # Number of TLB faults due to alignment restrictions
system.cpu0.istage2_mmu.stage2_tlb.prefetch_faults            0                       # Number of TLB faults due to prefetch
system.cpu0.istage2_mmu.stage2_tlb.domain_faults            0                       # Number of TLB faults due to domain restrictions
system.cpu0.istage2_mmu.stage2_tlb.perms_faults            0                       # Number of TLB faults due to permissions restrictions
system.cpu0.istage2_mmu.stage2_tlb.read_accesses            0                       # DTB read accesses
system.cpu0.istage2_mmu.stage2_tlb.write_accesses            0                       # DTB write accesses
system.cpu0.istage2_mmu.stage2_tlb.inst_accesses            0                       # ITB inst accesses
system.cpu0.istage2_mmu.stage2_tlb.hits             0                       # DTB hits
system.cpu0.istage2_mmu.stage2_tlb.misses            0                       # DTB misses
system.cpu0.istage2_mmu.stage2_tlb.accesses            0                       # DTB accesses
system.cpu0.itb.walker.pwrStateResidencyTicks::UNDEFINED 3738301037000                       # Cumulative time (in ticks) in various power states
system.cpu0.itb.walker.walks                        0                       # Table walker walks requested
system.cpu0.itb.walker.walkRequestOrigin_Requested::Data            0                       # Table walker requests started/completed, data/inst
system.cpu0.itb.walker.walkRequestOrigin_Requested::Inst            0                       # Table walker requests started/completed, data/inst
system.cpu0.itb.walker.walkRequestOrigin_Requested::total            0                       # Table walker requests started/completed, data/inst
system.cpu0.itb.walker.walkRequestOrigin_Completed::Data            0                       # Table walker requests started/completed, data/inst
system.cpu0.itb.walker.walkRequestOrigin_Completed::Inst            0                       # Table walker requests started/completed, data/inst
system.cpu0.itb.walker.walkRequestOrigin_Completed::total            0                       # Table walker requests started/completed, data/inst
system.cpu0.itb.walker.walkRequestOrigin::total            0                       # Table walker requests started/completed, data/inst
system.cpu0.itb.inst_hits                           0                       # ITB inst hits
system.cpu0.itb.inst_misses                         0                       # ITB inst misses
system.cpu0.itb.read_hits                           0                       # DTB read hits
system.cpu0.itb.read_misses                         0                       # DTB read misses
system.cpu0.itb.write_hits                          0                       # DTB write hits
system.cpu0.itb.write_misses                        0                       # DTB write misses
system.cpu0.itb.flush_tlb                           0                       # Number of times complete TLB was flushed
system.cpu0.itb.flush_tlb_mva                       0                       # Number of times TLB was flushed by MVA
system.cpu0.itb.flush_tlb_mva_asid                  0                       # Number of times TLB was flushed by MVA & ASID
system.cpu0.itb.flush_tlb_asid                      0                       # Number of times TLB was flushed by ASID
system.cpu0.itb.flush_entries                       0                       # Number of entries that have been flushed from TLB
system.cpu0.itb.align_faults                        0                       # Number of TLB faults due to alignment restrictions
system.cpu0.itb.prefetch_faults                     0                       # Number of TLB faults due to prefetch
system.cpu0.itb.domain_faults                       0                       # Number of TLB faults due to domain restrictions
system.cpu0.itb.perms_faults                        0                       # Number of TLB faults due to permissions restrictions
system.cpu0.itb.read_accesses                       0                       # DTB read accesses
system.cpu0.itb.write_accesses                      0                       # DTB write accesses
system.cpu0.itb.inst_accesses                       0                       # ITB inst accesses
system.cpu0.itb.hits                                0                       # DTB hits
system.cpu0.itb.misses                              0                       # DTB misses
system.cpu0.itb.accesses                            0                       # DTB accesses
system.cpu0.pwrStateResidencyTicks::ON   502456719500                       # Cumulative time (in ticks) in various power states
system.cpu0.numCycles                               0                       # number of cpu cycles simulated
system.cpu0.numWorkItemsStarted                     0                       # number of work items this cpu started
system.cpu0.numWorkItemsCompleted                   0                       # number of work items this cpu completed
system.cpu0.kern.inst.arm                           0                       # number of arm instructions executed
system.cpu0.kern.inst.quiesce                    6821                       # number of quiesce instructions executed
system.cpu0.committedInsts                          0                       # Number of instructions committed
system.cpu0.committedOps                            0                       # Number of ops (including micro ops) committed
system.cpu0.num_int_alu_accesses                    0                       # Number of integer alu accesses
system.cpu0.num_fp_alu_accesses                     0                       # Number of float alu accesses
system.cpu0.num_func_calls                          0                       # number of times a function call or return occured
system.cpu0.num_conditional_control_insts            0                       # number of instructions that are conditional controls
system.cpu0.num_int_insts                           0                       # number of integer instructions
system.cpu0.num_fp_insts                            0                       # number of float instructions
system.cpu0.num_int_register_reads                  0                       # number of times the integer registers were read
system.cpu0.num_int_register_writes                 0                       # number of times the integer registers were written
system.cpu0.num_fp_register_reads                   0                       # number of times the floating registers were read
system.cpu0.num_fp_register_writes                  0                       # number of times the floating registers were written
system.cpu0.num_mem_refs                            0                       # number of memory refs
system.cpu0.num_load_insts                          0                       # Number of load instructions
system.cpu0.num_store_insts                         0                       # Number of store instructions
system.cpu0.num_idle_cycles                         0                       # Number of idle cycles
system.cpu0.num_busy_cycles                         0                       # Number of busy cycles
system.cpu0.not_idle_fraction                       1                       # Percentage of non-idle cycles
system.cpu0.idle_fraction                           0                       # Percentage of idle cycles
system.cpu0.op_class::No_OpClass                    0                       # Class of executed instruction
system.cpu0.op_class::IntAlu                        0                       # Class of executed instruction
system.cpu0.op_class::IntMult                       0                       # Class of executed instruction
system.cpu0.op_class::IntDiv                        0                       # Class of executed instruction
system.cpu0.op_class::FloatAdd                      0                       # Class of executed instruction
system.cpu0.op_class::FloatCmp                      0                       # Class of executed instruction
system.cpu0.op_class::FloatCvt                      0                       # Class of executed instruction
system.cpu0.op_class::FloatMult                     0                       # Class of executed instruction
system.cpu0.op_class::FloatDiv                      0                       # Class of executed instruction
system.cpu0.op_class::FloatSqrt                     0                       # Class of executed instruction
system.cpu0.op_class::SimdAdd                       0                       # Class of executed instruction
system.cpu0.op_class::SimdAddAcc                    0                       # Class of executed instruction
system.cpu0.op_class::SimdAlu                       0                       # Class of executed instruction
system.cpu0.op_class::SimdCmp                       0                       # Class of executed instruction
system.cpu0.op_class::SimdCvt                       0                       # Class of executed instruction
system.cpu0.op_class::SimdMisc                      0                       # Class of executed instruction
system.cpu0.op_class::SimdMult                      0                       # Class of executed instruction
system.cpu0.op_class::SimdMultAcc                   0                       # Class of executed instruction
system.cpu0.op_class::SimdShift                     0                       # Class of executed instruction
system.cpu0.op_class::SimdShiftAcc                  0                       # Class of executed instruction
system.cpu0.op_class::SimdSqrt                      0                       # Class of executed instruction
system.cpu0.op_class::SimdFloatAdd                  0                       # Class of executed instruction
system.cpu0.op_class::SimdFloatAlu                  0                       # Class of executed instruction
system.cpu0.op_class::SimdFloatCmp                  0                       # Class of executed instruction
system.cpu0.op_class::SimdFloatCvt                  0                       # Class of executed instruction
system.cpu0.op_class::SimdFloatDiv                  0                       # Class of executed instruction
system.cpu0.op_class::SimdFloatMisc                 0                       # Class of executed instruction
system.cpu0.op_class::SimdFloatMult                 0                       # Class of executed instruction
system.cpu0.op_class::SimdFloatMultAcc              0                       # Class of executed instruction
system.cpu0.op_class::SimdFloatSqrt                 0                       # Class of executed instruction
system.cpu0.op_class::MemRead                       0                       # Class of executed instruction
system.cpu0.op_class::MemWrite                      0                       # Class of executed instruction
system.cpu0.op_class::IprAccess                     0                       # Class of executed instruction
system.cpu0.op_class::InstPrefetch                  0                       # Class of executed instruction
system.cpu0.op_class::total                         0                       # Class of executed instruction
system.cpu0.dcache.tags.pwrStateResidencyTicks::UNDEFINED 3738301037000                       # Cumulative time (in ticks) in various power states
system.cpu0.dcache.tags.replacements          4505319                       # number of replacements
system.cpu0.dcache.tags.tagsinuse          949.456752                       # Cycle average of tags in use
system.cpu0.dcache.tags.total_refs          126613200                       # Total number of references to valid blocks.
system.cpu0.dcache.tags.sampled_refs          4506342                       # Sample count of references to valid blocks.
system.cpu0.dcache.tags.avg_refs            28.096669                       # Average number of references to valid blocks.
system.cpu0.dcache.tags.warmup_cycle     3237663823500                       # Cycle when the warmup percentage was hit.
system.cpu0.dcache.tags.occ_blocks::switch_cpus0.data   949.456752                       # Average occupied blocks per requestor
system.cpu0.dcache.tags.occ_percent::switch_cpus0.data     0.927204                       # Average percentage of cache occupancy
system.cpu0.dcache.tags.occ_percent::total     0.927204                       # Average percentage of cache occupancy
system.cpu0.dcache.tags.occ_task_id_blocks::1024         1023                       # Occupied blocks per task id
system.cpu0.dcache.tags.age_task_id_blocks_1024::0          180                       # Occupied blocks per task id
system.cpu0.dcache.tags.age_task_id_blocks_1024::1          697                       # Occupied blocks per task id
system.cpu0.dcache.tags.age_task_id_blocks_1024::2          146                       # Occupied blocks per task id
system.cpu0.dcache.tags.occ_task_id_percent::1024     0.999023                       # Percentage of cache occupancy per task id
system.cpu0.dcache.tags.tag_accesses        314666715                       # Number of tag accesses
system.cpu0.dcache.tags.data_accesses       314666715                       # Number of data accesses
system.cpu0.dcache.pwrStateResidencyTicks::UNDEFINED 3738301037000                       # Cumulative time (in ticks) in various power states
system.cpu0.dcache.ReadReq_hits::switch_cpus0.data     77110360                       # number of ReadReq hits
system.cpu0.dcache.ReadReq_hits::total       77110360                       # number of ReadReq hits
system.cpu0.dcache.WriteReq_hits::switch_cpus0.data     45022678                       # number of WriteReq hits
system.cpu0.dcache.WriteReq_hits::total      45022678                       # number of WriteReq hits
system.cpu0.dcache.SoftPFReq_hits::switch_cpus0.data       967846                       # number of SoftPFReq hits
system.cpu0.dcache.SoftPFReq_hits::total       967846                       # number of SoftPFReq hits
system.cpu0.dcache.LoadLockedReq_hits::switch_cpus0.data      1450220                       # number of LoadLockedReq hits
system.cpu0.dcache.LoadLockedReq_hits::total      1450220                       # number of LoadLockedReq hits
system.cpu0.dcache.StoreCondReq_hits::switch_cpus0.data      1394469                       # number of StoreCondReq hits
system.cpu0.dcache.StoreCondReq_hits::total      1394469                       # number of StoreCondReq hits
system.cpu0.dcache.demand_hits::switch_cpus0.data    122133038                       # number of demand (read+write) hits
system.cpu0.dcache.demand_hits::total       122133038                       # number of demand (read+write) hits
system.cpu0.dcache.overall_hits::switch_cpus0.data    123100884                       # number of overall hits
system.cpu0.dcache.overall_hits::total      123100884                       # number of overall hits
system.cpu0.dcache.ReadReq_misses::switch_cpus0.data      6061701                       # number of ReadReq misses
system.cpu0.dcache.ReadReq_misses::total      6061701                       # number of ReadReq misses
system.cpu0.dcache.WriteReq_misses::switch_cpus0.data     21772914                       # number of WriteReq misses
system.cpu0.dcache.WriteReq_misses::total     21772914                       # number of WriteReq misses
system.cpu0.dcache.SoftPFReq_misses::switch_cpus0.data      1020366                       # number of SoftPFReq misses
system.cpu0.dcache.SoftPFReq_misses::total      1020366                       # number of SoftPFReq misses
system.cpu0.dcache.LoadLockedReq_misses::switch_cpus0.data       100965                       # number of LoadLockedReq misses
system.cpu0.dcache.LoadLockedReq_misses::total       100965                       # number of LoadLockedReq misses
system.cpu0.dcache.StoreCondReq_misses::switch_cpus0.data        67492                       # number of StoreCondReq misses
system.cpu0.dcache.StoreCondReq_misses::total        67492                       # number of StoreCondReq misses
system.cpu0.dcache.demand_misses::switch_cpus0.data     27834615                       # number of demand (read+write) misses
system.cpu0.dcache.demand_misses::total      27834615                       # number of demand (read+write) misses
system.cpu0.dcache.overall_misses::switch_cpus0.data     28854981                       # number of overall misses
system.cpu0.dcache.overall_misses::total     28854981                       # number of overall misses
system.cpu0.dcache.ReadReq_miss_latency::switch_cpus0.data 199631458000                       # number of ReadReq miss cycles
system.cpu0.dcache.ReadReq_miss_latency::total 199631458000                       # number of ReadReq miss cycles
system.cpu0.dcache.WriteReq_miss_latency::switch_cpus0.data 1074996814225                       # number of WriteReq miss cycles
system.cpu0.dcache.WriteReq_miss_latency::total 1074996814225                       # number of WriteReq miss cycles
system.cpu0.dcache.LoadLockedReq_miss_latency::switch_cpus0.data   1883513000                       # number of LoadLockedReq miss cycles
system.cpu0.dcache.LoadLockedReq_miss_latency::total   1883513000                       # number of LoadLockedReq miss cycles
system.cpu0.dcache.StoreCondReq_miss_latency::switch_cpus0.data    328257000                       # number of StoreCondReq miss cycles
system.cpu0.dcache.StoreCondReq_miss_latency::total    328257000                       # number of StoreCondReq miss cycles
system.cpu0.dcache.StoreCondFailReq_miss_latency::switch_cpus0.data       150000                       # number of StoreCondFailReq miss cycles
system.cpu0.dcache.StoreCondFailReq_miss_latency::total       150000                       # number of StoreCondFailReq miss cycles
system.cpu0.dcache.demand_miss_latency::switch_cpus0.data 1274628272225                       # number of demand (read+write) miss cycles
system.cpu0.dcache.demand_miss_latency::total 1274628272225                       # number of demand (read+write) miss cycles
system.cpu0.dcache.overall_miss_latency::switch_cpus0.data 1274628272225                       # number of overall miss cycles
system.cpu0.dcache.overall_miss_latency::total 1274628272225                       # number of overall miss cycles
system.cpu0.dcache.ReadReq_accesses::switch_cpus0.data     83172061                       # number of ReadReq accesses(hits+misses)
system.cpu0.dcache.ReadReq_accesses::total     83172061                       # number of ReadReq accesses(hits+misses)
system.cpu0.dcache.WriteReq_accesses::switch_cpus0.data     66795592                       # number of WriteReq accesses(hits+misses)
system.cpu0.dcache.WriteReq_accesses::total     66795592                       # number of WriteReq accesses(hits+misses)
system.cpu0.dcache.SoftPFReq_accesses::switch_cpus0.data      1988212                       # number of SoftPFReq accesses(hits+misses)
system.cpu0.dcache.SoftPFReq_accesses::total      1988212                       # number of SoftPFReq accesses(hits+misses)
system.cpu0.dcache.LoadLockedReq_accesses::switch_cpus0.data      1551185                       # number of LoadLockedReq accesses(hits+misses)
system.cpu0.dcache.LoadLockedReq_accesses::total      1551185                       # number of LoadLockedReq accesses(hits+misses)
system.cpu0.dcache.StoreCondReq_accesses::switch_cpus0.data      1461961                       # number of StoreCondReq accesses(hits+misses)
system.cpu0.dcache.StoreCondReq_accesses::total      1461961                       # number of StoreCondReq accesses(hits+misses)
system.cpu0.dcache.demand_accesses::switch_cpus0.data    149967653                       # number of demand (read+write) accesses
system.cpu0.dcache.demand_accesses::total    149967653                       # number of demand (read+write) accesses
system.cpu0.dcache.overall_accesses::switch_cpus0.data    151955865                       # number of overall (read+write) accesses
system.cpu0.dcache.overall_accesses::total    151955865                       # number of overall (read+write) accesses
system.cpu0.dcache.ReadReq_miss_rate::switch_cpus0.data     0.072881                       # miss rate for ReadReq accesses
system.cpu0.dcache.ReadReq_miss_rate::total     0.072881                       # miss rate for ReadReq accesses
system.cpu0.dcache.WriteReq_miss_rate::switch_cpus0.data     0.325963                       # miss rate for WriteReq accesses
system.cpu0.dcache.WriteReq_miss_rate::total     0.325963                       # miss rate for WriteReq accesses
system.cpu0.dcache.SoftPFReq_miss_rate::switch_cpus0.data     0.513208                       # miss rate for SoftPFReq accesses
system.cpu0.dcache.SoftPFReq_miss_rate::total     0.513208                       # miss rate for SoftPFReq accesses
system.cpu0.dcache.LoadLockedReq_miss_rate::switch_cpus0.data     0.065089                       # miss rate for LoadLockedReq accesses
system.cpu0.dcache.LoadLockedReq_miss_rate::total     0.065089                       # miss rate for LoadLockedReq accesses
system.cpu0.dcache.StoreCondReq_miss_rate::switch_cpus0.data     0.046165                       # miss rate for StoreCondReq accesses
system.cpu0.dcache.StoreCondReq_miss_rate::total     0.046165                       # miss rate for StoreCondReq accesses
system.cpu0.dcache.demand_miss_rate::switch_cpus0.data     0.185604                       # miss rate for demand accesses
system.cpu0.dcache.demand_miss_rate::total     0.185604                       # miss rate for demand accesses
system.cpu0.dcache.overall_miss_rate::switch_cpus0.data     0.189891                       # miss rate for overall accesses
system.cpu0.dcache.overall_miss_rate::total     0.189891                       # miss rate for overall accesses
system.cpu0.dcache.ReadReq_avg_miss_latency::switch_cpus0.data 32933.240686                       # average ReadReq miss latency
system.cpu0.dcache.ReadReq_avg_miss_latency::total 32933.240686                       # average ReadReq miss latency
system.cpu0.dcache.WriteReq_avg_miss_latency::switch_cpus0.data 49373.125445                       # average WriteReq miss latency
system.cpu0.dcache.WriteReq_avg_miss_latency::total 49373.125445                       # average WriteReq miss latency
system.cpu0.dcache.LoadLockedReq_avg_miss_latency::switch_cpus0.data 18655.108206                       # average LoadLockedReq miss latency
system.cpu0.dcache.LoadLockedReq_avg_miss_latency::total 18655.108206                       # average LoadLockedReq miss latency
system.cpu0.dcache.StoreCondReq_avg_miss_latency::switch_cpus0.data  4863.643098                       # average StoreCondReq miss latency
system.cpu0.dcache.StoreCondReq_avg_miss_latency::total  4863.643098                       # average StoreCondReq miss latency
system.cpu0.dcache.StoreCondFailReq_avg_miss_latency::switch_cpus0.data          inf                       # average StoreCondFailReq miss latency
system.cpu0.dcache.StoreCondFailReq_avg_miss_latency::total          inf                       # average StoreCondFailReq miss latency
system.cpu0.dcache.demand_avg_miss_latency::switch_cpus0.data 45792.919077                       # average overall miss latency
system.cpu0.dcache.demand_avg_miss_latency::total 45792.919077                       # average overall miss latency
system.cpu0.dcache.overall_avg_miss_latency::switch_cpus0.data 44173.595963                       # average overall miss latency
system.cpu0.dcache.overall_avg_miss_latency::total 44173.595963                       # average overall miss latency
system.cpu0.dcache.blocked_cycles::no_mshrs      9774360                       # number of cycles access was blocked
system.cpu0.dcache.blocked_cycles::no_targets      1441828                       # number of cycles access was blocked
system.cpu0.dcache.blocked::no_mshrs           469006                       # number of cycles access was blocked
system.cpu0.dcache.blocked::no_targets          13547                       # number of cycles access was blocked
system.cpu0.dcache.avg_blocked_cycles::no_mshrs    20.840586                       # average number of cycles each access was blocked
system.cpu0.dcache.avg_blocked_cycles::no_targets   106.431535                       # average number of cycles each access was blocked
system.cpu0.dcache.writebacks::writebacks      2647127                       # number of writebacks
system.cpu0.dcache.writebacks::total          2647127                       # number of writebacks
system.cpu0.dcache.ReadReq_mshr_hits::switch_cpus0.data      3768604                       # number of ReadReq MSHR hits
system.cpu0.dcache.ReadReq_mshr_hits::total      3768604                       # number of ReadReq MSHR hits
system.cpu0.dcache.WriteReq_mshr_hits::switch_cpus0.data     20034011                       # number of WriteReq MSHR hits
system.cpu0.dcache.WriteReq_mshr_hits::total     20034011                       # number of WriteReq MSHR hits
system.cpu0.dcache.LoadLockedReq_mshr_hits::switch_cpus0.data        68724                       # number of LoadLockedReq MSHR hits
[...]
system.switch_cpus3.commit.op_class_0::SimdCmp            0      0.00%     60.97% # Class of committed instruction
system.switch_cpus3.commit.op_class_0::SimdCvt            0      0.00%     60.97% # Class of committed instruction
system.switch_cpus3.commit.op_class_0::SimdMisc            0      0.00%     60.97% # Class of committed instruction
system.switch_cpus3.commit.op_class_0::SimdMult            0      0.00%     60.97% # Class of committed instruction
system.switch_cpus3.commit.op_class_0::SimdMultAcc            0      0.00%     60.97% # Class of committed instruction
system.switch_cpus3.commit.op_class_0::SimdShift            0      0.00%     60.97% # Class of committed instruction
system.switch_cpus3.commit.op_class_0::SimdShiftAcc            0      0.00%     60.97% # Class of committed instruction
system.switch_cpus3.commit.op_class_0::SimdSqrt            0      0.00%     60.97% # Class of committed instruction
system.switch_cpus3.commit.op_class_0::SimdFloatAdd            0      0.00%     60.97% # Class of committed instruction
system.switch_cpus3.commit.op_class_0::SimdFloatAlu            0      0.00%     60.97% # Class of committed instruction
system.switch_cpus3.commit.op_class_0::SimdFloatCmp            9      0.00%     60.97% # Class of committed instruction
system.switch_cpus3.commit.op_class_0::SimdFloatCvt           18      0.00%     60.97% # Class of committed instruction
system.switch_cpus3.commit.op_class_0::SimdFloatDiv            9      0.00%     60.97% # Class of committed instruction
system.switch_cpus3.commit.op_class_0::SimdFloatMisc        15377      0.01%     60.98% # Class of committed instruction
system.switch_cpus3.commit.op_class_0::SimdFloatMult            0      0.00%     60.98% # Class of committed instruction
system.switch_cpus3.commit.op_class_0::SimdFloatMultAcc            0      0.00%     60.98% # Class of committed instruction
system.switch_cpus3.commit.op_class_0::SimdFloatSqrt            0      0.00%     60.98% # Class of committed instruction
system.switch_cpus3.commit.op_class_0::MemRead     29268519     19.56%     80.54% # Class of committed instruction
system.switch_cpus3.commit.op_class_0::MemWrite     29121349     19.46%    100.00% # Class of committed instruction
system.switch_cpus3.commit.op_class_0::IprAccess            0      0.00%    100.00% # Class of committed instruction
system.switch_cpus3.commit.op_class_0::InstPrefetch            0      0.00%    100.00% # Class of committed instruction
system.switch_cpus3.commit.op_class_0::total    149649805                       # Class of committed instruction
system.switch_cpus3.commit.bw_lim_events      5856843                       # number cycles where commit BW limit reached
system.switch_cpus3.rob.rob_reads           379806040                       # The number of ROB reads
system.switch_cpus3.rob.rob_writes          381610313                       # The number of ROB writes
system.switch_cpus3.timesIdled                1006973                       # Number of times that the entire CPU went into an idle state and unscheduled itself
system.switch_cpus3.idleCycles               19978564                       # Total number of cycles that the CPU has spent unscheduled due to idling
system.switch_cpus3.quiesceCycles           775526721                       # Total number of cycles that CPU has spent quiesced or waiting for an interrupt
system.switch_cpus3.committedInsts          115555918                       # Number of Instructions Simulated
system.switch_cpus3.committedOps            149321446                       # Number of Ops (including micro ops) Simulated
system.switch_cpus3.cpi                      1.976757                       # CPI: Cycles Per Instruction
system.switch_cpus3.cpi_total                1.976757                       # CPI: Total CPI of All Threads
system.switch_cpus3.ipc                      0.505879                       # IPC: Instructions Per Cycle
system.switch_cpus3.ipc_total                0.505879                       # IPC: Total IPC of All Threads
system.switch_cpus3.int_regfile_reads       186932398                       # number of integer regfile reads
system.switch_cpus3.int_regfile_writes      104804123                       # number of integer regfile writes
system.switch_cpus3.fp_regfile_reads           133887                       # number of floating regfile reads
system.switch_cpus3.fp_regfile_writes           43337                       # number of floating regfile writes
system.switch_cpus3.cc_regfile_reads        606745513                       # number of cc regfile reads
system.switch_cpus3.cc_regfile_writes        61081238                       # number of cc regfile writes
system.switch_cpus3.misc_regfile_reads      406726883                       # number of misc regfile reads
system.switch_cpus3.misc_regfile_writes       2615077                       # number of misc regfile writes
system.tol2bus.snoop_filter.tot_requests     63980035                       # Total number of requests made to the snoop filter.
system.tol2bus.snoop_filter.hit_single_requests     30794306                       # Number of requests hitting in the snoop filter with a single holder of the requested data.
system.tol2bus.snoop_filter.hit_multi_requests      9858465                       # Number of requests hitting in the snoop filter with multiple (>1) holders of the requested data.
system.tol2bus.snoop_filter.tot_snoops         273773                       # Total number of snoops made to the snoop filter.
system.tol2bus.snoop_filter.hit_single_snoops       246628                       # Number of snoops hitting in the snoop filter with a single holder of the requested data.
system.tol2bus.snoop_filter.hit_multi_snoops        27145                       # Number of snoops hitting in the snoop filter with multiple (>1) holders of the requested data.
system.tol2bus.pwrStateResidencyTicks::UNDEFINED 3738301037000                       # Cumulative time (in ticks) in various power states
system.tol2bus.trans_dist::ReadReq            3867385                       # Transaction distribution
system.tol2bus.trans_dist::ReadResp          24785542                       # Transaction distribution
system.tol2bus.trans_dist::WriteReq              6867                       # Transaction distribution
system.tol2bus.trans_dist::WriteResp             6867                       # Transaction distribution
system.tol2bus.trans_dist::WritebackDirty     20416081                       # Transaction distribution
system.tol2bus.trans_dist::WritebackClean     14347965                       # Transaction distribution
system.tol2bus.trans_dist::CleanEvict         5261292                       # Transaction distribution
system.tol2bus.trans_dist::UpgradeReq          520844                       # Transaction distribution
system.tol2bus.trans_dist::SCUpgradeReq        183898                       # Transaction distribution
system.tol2bus.trans_dist::UpgradeResp         704743                       # Transaction distribution
system.tol2bus.trans_dist::SCUpgradeFailReq           45                       # Transaction distribution
system.tol2bus.trans_dist::UpgradeFailResp           45                       # Transaction distribution
system.tol2bus.trans_dist::ReadExReq          9747024                       # Transaction distribution
system.tol2bus.trans_dist::ReadExResp         9747026                       # Transaction distribution
system.tol2bus.trans_dist::ReadCleanReq      14348842                       # Transaction distribution
system.tol2bus.trans_dist::ReadSharedReq      6569331                       # Transaction distribution
system.tol2bus.trans_dist::InvalidateReq         1555                       # Transaction distribution
system.tol2bus.pkt_count_system.cpu0.icache.mem_side::system.l2.cpu_side     19592545                       # Packet count per connected master and slave (bytes)
system.tol2bus.pkt_count_system.cpu0.dcache.mem_side::system.l2.cpu_side     13940731                       # Packet count per connected master and slave (bytes)
system.tol2bus.pkt_count_system.cpu0.itb.walker.dma::system.l2.cpu_side       455373                       # Packet count per connected master and slave (bytes)
system.tol2bus.pkt_count_system.cpu0.dtb.walker.dma::system.l2.cpu_side      1599614                       # Packet count per connected master and slave (bytes)
system.tol2bus.pkt_count_system.cpu1.icache.mem_side::system.l2.cpu_side      4993601                       # Packet count per connected master and slave (bytes)
system.tol2bus.pkt_count_system.cpu1.dcache.mem_side::system.l2.cpu_side     21891606                       # Packet count per connected master and slave (bytes)
system.tol2bus.pkt_count_system.cpu1.itb.walker.dma::system.l2.cpu_side        66586                       # Packet count per connected master and slave (bytes)
system.tol2bus.pkt_count_system.cpu1.dtb.walker.dma::system.l2.cpu_side      1114220                       # Packet count per connected master and slave (bytes)
system.tol2bus.pkt_count_system.cpu2.icache.mem_side::system.l2.cpu_side     11285284                       # Packet count per connected master and slave (bytes)
system.tol2bus.pkt_count_system.cpu2.dcache.mem_side::system.l2.cpu_side      7384197                       # Packet count per connected master and slave (bytes)
system.tol2bus.pkt_count_system.cpu2.itb.walker.dma::system.l2.cpu_side       265835                       # Packet count per connected master and slave (bytes)
system.tol2bus.pkt_count_system.cpu2.dtb.walker.dma::system.l2.cpu_side       960747                       # Packet count per connected master and slave (bytes)
system.tol2bus.pkt_count_system.cpu3.icache.mem_side::system.l2.cpu_side      7173300                       # Packet count per connected master and slave (bytes)
system.tol2bus.pkt_count_system.cpu3.dcache.mem_side::system.l2.cpu_side      5328516                       # Packet count per connected master and slave (bytes)
system.tol2bus.pkt_count_system.cpu3.itb.walker.dma::system.l2.cpu_side       229605                       # Packet count per connected master and slave (bytes)
system.tol2bus.pkt_count_system.cpu3.dtb.walker.dma::system.l2.cpu_side       607406                       # Packet count per connected master and slave (bytes)
system.tol2bus.pkt_count::total              96889166                       # Packet count per connected master and slave (bytes)
system.tol2bus.pkt_size_system.cpu0.icache.mem_side::system.l2.cpu_side    835921728                       # Cumulative packet size per connected master and slave (bytes)
system.tol2bus.pkt_size_system.cpu0.dcache.mem_side::system.l2.cpu_side    447760359                       # Cumulative packet size per connected master and slave (bytes)
system.tol2bus.pkt_size_system.cpu0.itb.walker.dma::system.l2.cpu_side       446768                       # Cumulative packet size per connected master and slave (bytes)
system.tol2bus.pkt_size_system.cpu0.dtb.walker.dma::system.l2.cpu_side      1923468                       # Cumulative packet size per connected master and slave (bytes)
system.tol2bus.pkt_size_system.cpu1.icache.mem_side::system.l2.cpu_side    213059776                       # Cumulative packet size per connected master and slave (bytes)
system.tol2bus.pkt_size_system.cpu1.dcache.mem_side::system.l2.cpu_side    917440366                       # Cumulative packet size per connected master and slave (bytes)
system.tol2bus.pkt_size_system.cpu1.itb.walker.dma::system.l2.cpu_side       130244                       # Cumulative packet size per connected master and slave (bytes)
system.tol2bus.pkt_size_system.cpu1.dtb.walker.dma::system.l2.cpu_side       767800                       # Cumulative packet size per connected master and slave (bytes)
system.tol2bus.pkt_size_system.cpu2.icache.mem_side::system.l2.cpu_side    481497664                       # Cumulative packet size per connected master and slave (bytes)
system.tol2bus.pkt_size_system.cpu2.dcache.mem_side::system.l2.cpu_side    228507129                       # Cumulative packet size per connected master and slave (bytes)
system.tol2bus.pkt_size_system.cpu2.itb.walker.dma::system.l2.cpu_side       230064                       # Cumulative packet size per connected master and slave (bytes)
system.tol2bus.pkt_size_system.cpu2.dtb.walker.dma::system.l2.cpu_side      1129304                       # Cumulative packet size per connected master and slave (bytes)
system.tol2bus.pkt_size_system.cpu3.icache.mem_side::system.l2.cpu_side    306057664                       # Cumulative packet size per connected master and slave (bytes)
system.tol2bus.pkt_size_system.cpu3.dcache.mem_side::system.l2.cpu_side    169546423                       # Cumulative packet size per connected master and slave (bytes)
system.tol2bus.pkt_size_system.cpu3.itb.walker.dma::system.l2.cpu_side       293064                       # Cumulative packet size per connected master and slave (bytes)
system.tol2bus.pkt_size_system.cpu3.dtb.walker.dma::system.l2.cpu_side       834908                       # Cumulative packet size per connected master and slave (bytes)
system.tol2bus.pkt_size::total             3605546729                       # Cumulative packet size per connected master and slave (bytes)
system.tol2bus.snoops                        13626411                       # Total snoops (count)
system.tol2bus.snoopTraffic                 597433632                       # Total snoop traffic (bytes)
system.tol2bus.snoop_fanout::samples         45228827                       # Request fanout histogram
system.tol2bus.snoop_fanout::mean            0.315258                       # Request fanout histogram
system.tol2bus.snoop_fanout::stdev           0.651575                       # Request fanout histogram
system.tol2bus.snoop_fanout::underflows             0      0.00%      0.00% # Request fanout histogram
system.tol2bus.snoop_fanout::0               34614641     76.53%     76.53% # Request fanout histogram
system.tol2bus.snoop_fanout::1                7859375     17.38%     93.91% # Request fanout histogram
system.tol2bus.snoop_fanout::2                1980936      4.38%     98.29% # Request fanout histogram
system.tol2bus.snoop_fanout::3                 709737      1.57%     99.86% # Request fanout histogram
system.tol2bus.snoop_fanout::4                  28167      0.06%     99.92% # Request fanout histogram
system.tol2bus.snoop_fanout::5                  21738      0.05%     99.97% # Request fanout histogram
system.tol2bus.snoop_fanout::6                  12711      0.03%    100.00% # Request fanout histogram
system.tol2bus.snoop_fanout::7                   1522      0.00%    100.00% # Request fanout histogram
system.tol2bus.snoop_fanout::8                      0      0.00%    100.00% # Request fanout histogram
system.tol2bus.snoop_fanout::overflows              0      0.00%    100.00% # Request fanout histogram
system.tol2bus.snoop_fanout::min_value              0                       # Request fanout histogram
system.tol2bus.snoop_fanout::max_value              7                       # Request fanout histogram
system.tol2bus.snoop_fanout::total           45228827                       # Request fanout histogram
system.tol2bus.reqLayer0.occupancy        59089391686                       # Layer occupancy (ticks)
system.tol2bus.reqLayer0.utilization             11.8                       # Layer utilization (%)
system.tol2bus.snoopLayer0.occupancy           363947                       # Layer occupancy (ticks)
system.tol2bus.snoopLayer0.utilization            0.0                       # Layer utilization (%)
system.tol2bus.respLayer0.occupancy        9814428835                       # Layer occupancy (ticks)
system.tol2bus.respLayer0.utilization             2.0                       # Layer utilization (%)
system.tol2bus.respLayer1.occupancy        7245173148                       # Layer occupancy (ticks)
system.tol2bus.respLayer1.utilization             1.4                       # Layer utilization (%)
system.tol2bus.respLayer2.occupancy         344551707                       # Layer occupancy (ticks)
system.tol2bus.respLayer2.utilization             0.1                       # Layer utilization (%)
system.tol2bus.respLayer3.occupancy        1124591991                       # Layer occupancy (ticks)
system.tol2bus.respLayer3.utilization             0.2                       # Layer utilization (%)
system.tol2bus.respLayer4.occupancy        2503369384                       # Layer occupancy (ticks)
system.tol2bus.respLayer4.utilization             0.5                       # Layer utilization (%)
system.tol2bus.respLayer5.occupancy       11023427152                       # Layer occupancy (ticks)
system.tol2bus.respLayer5.utilization             2.2                       # Layer utilization (%)
system.tol2bus.respLayer6.occupancy          34328879                       # Layer occupancy (ticks)
system.tol2bus.respLayer6.utilization             0.0                       # Layer utilization (%)
system.tol2bus.respLayer7.occupancy         923483023                       # Layer occupancy (ticks)
system.tol2bus.respLayer7.utilization             0.2                       # Layer utilization (%)
system.tol2bus.respLayer8.occupancy        5654457437                       # Layer occupancy (ticks)
system.tol2bus.respLayer8.utilization             1.1                       # Layer utilization (%)
system.tol2bus.respLayer9.occupancy        3868185839                       # Layer occupancy (ticks)
system.tol2bus.respLayer9.utilization             0.8                       # Layer utilization (%)
system.tol2bus.respLayer10.occupancy        208825948                       # Layer occupancy (ticks)
system.tol2bus.respLayer10.utilization            0.0                       # Layer utilization (%)
system.tol2bus.respLayer11.occupancy        681457747                       # Layer occupancy (ticks)
system.tol2bus.respLayer11.utilization            0.1                       # Layer utilization (%)
system.tol2bus.respLayer12.occupancy       3596098870                       # Layer occupancy (ticks)
system.tol2bus.respLayer12.utilization            0.7                       # Layer utilization (%)
system.tol2bus.respLayer13.occupancy       2861445914                       # Layer occupancy (ticks)
system.tol2bus.respLayer13.utilization            0.6                       # Layer utilization (%)
system.tol2bus.respLayer14.occupancy        157126385                       # Layer occupancy (ticks)
system.tol2bus.respLayer14.utilization            0.0                       # Layer utilization (%)
system.tol2bus.respLayer15.occupancy        401905312                       # Layer occupancy (ticks)
system.tol2bus.respLayer15.utilization            0.1                       # Layer utilization (%)
system.switch_cpus0.kern.inst.arm                   0                       # number of arm instructions executed
system.switch_cpus0.kern.inst.quiesce               0                       # number of quiesce instructions executed
system.switch_cpus1.kern.inst.arm                   0                       # number of arm instructions executed
system.switch_cpus1.kern.inst.quiesce               0                       # number of quiesce instructions executed
system.switch_cpus2.kern.inst.arm                   0                       # number of arm instructions executed
system.switch_cpus2.kern.inst.quiesce               0                       # number of quiesce instructions executed
system.switch_cpus3.kern.inst.arm                   0                       # number of arm instructions executed
system.switch_cpus3.kern.inst.quiesce               0                       # number of quiesce instructions executed

---------- End Simulation Statistics   ----------
