
---------- Begin Simulation Statistics ----------
sim_seconds                                  0.501804                       # Number of seconds simulated
sim_ticks                                501804172500                       # Number of ticks simulated
final_tick                               3738195183000                       # Number of ticks from beginning of simulation (restored from checkpoints and never reset)
sim_freq                                 1000000000000                       # Frequency of simulated ticks
host_inst_rate                                 152822                       # Simulator instruction rate (inst/s)
host_op_rate                                   179231                       # Simulator op (including micro ops) rate (op/s)
host_tick_rate                               33219689                       # Simulator tick rate (ticks/s)
host_mem_usage                                2498404                       # Number of bytes of host memory used
host_seconds                                 15105.63                       # Real time elapsed on the host
sim_insts                                  2308478663                       # Number of instructions simulated
sim_ops                                    2707398628                       # Number of ops (including micro ops) simulated
system.voltage_domain.voltage                       1                       # Voltage in Volts
system.clk_domain.clock                          1000                       # Clock period in ticks
system.mem_ctrls.pwrStateResidencyTicks::UNDEFINED 3738195183000                       # Cumulative time (in ticks) in various power states
system.mem_ctrls.bytes_read::switch_cpus0.dtb.walker        39680                       # Number of bytes read from this memory
system.mem_ctrls.bytes_read::switch_cpus0.itb.walker        17280                       # Number of bytes read from this memory
system.mem_ctrls.bytes_read::switch_cpus0.inst      3431296                       # Number of bytes read from this memory
system.mem_ctrls.bytes_read::switch_cpus0.data     23607872                       # Number of bytes read from this memory
system.mem_ctrls.bytes_read::switch_cpus1.dtb.walker       150080                       # Number of bytes read from this memory
system.mem_ctrls.bytes_read::switch_cpus1.itb.walker        50240                       # Number of bytes read from this memory
system.mem_ctrls.bytes_read::switch_cpus1.inst      1282304                       # Number of bytes read from this memory
system.mem_ctrls.bytes_read::switch_cpus1.data      2270912                       # Number of bytes read from this memory
system.mem_ctrls.bytes_read::switch_cpus2.dtb.walker        11584                       # Number of bytes read from this memory
system.mem_ctrls.bytes_read::switch_cpus2.itb.walker         4992                       # Number of bytes read from this memory
system.mem_ctrls.bytes_read::switch_cpus2.inst      1608320                       # Number of bytes read from this memory
system.mem_ctrls.bytes_read::switch_cpus2.data      9931072                       # Number of bytes read from this memory
system.mem_ctrls.bytes_read::switch_cpus3.dtb.walker        17856                       # Number of bytes read from this memory
system.mem_ctrls.bytes_read::switch_cpus3.itb.walker        10688                       # Number of bytes read from this memory
system.mem_ctrls.bytes_read::switch_cpus3.inst      2585344                       # Number of bytes read from this memory
system.mem_ctrls.bytes_read::switch_cpus3.data     21757824                       # Number of bytes read from this memory
system.mem_ctrls.bytes_read::total           66777344                       # Number of bytes read from this memory
system.mem_ctrls.bytes_inst_read::switch_cpus0.inst      3431296                       # Number of instructions bytes read from this memory
system.mem_ctrls.bytes_inst_read::switch_cpus1.inst      1282304                       # Number of instructions bytes read from this memory
system.mem_ctrls.bytes_inst_read::switch_cpus2.inst      1608320                       # Number of instructions bytes read from this memory
system.mem_ctrls.bytes_inst_read::switch_cpus3.inst      2585344                       # Number of instructions bytes read from this memory
system.mem_ctrls.bytes_inst_read::total       8907264                       # Number of instructions bytes read from this memory
system.mem_ctrls.bytes_written::writebacks     50059072                       # Number of bytes written to this memory
system.mem_ctrls.bytes_written::total        50059072                       # Number of bytes written to this memory
system.mem_ctrls.num_reads::switch_cpus0.dtb.walker          620                       # Number of read requests responded to by this memory
system.mem_ctrls.num_reads::switch_cpus0.itb.walker          270                       # Number of read requests responded to by this memory
system.mem_ctrls.num_reads::switch_cpus0.inst        53614                       # Number of read requests responded to by this memory
system.mem_ctrls.num_reads::switch_cpus0.data       368873                       # Number of read requests responded to by this memory
system.mem_ctrls.num_reads::switch_cpus1.dtb.walker         2345                       # Number of read requests responded to by this memory
system.mem_ctrls.num_reads::switch_cpus1.itb.walker          785                       # Number of read requests responded to by this memory
system.mem_ctrls.num_reads::switch_cpus1.inst        20036                       # Number of read requests responded to by this memory
system.mem_ctrls.num_reads::switch_cpus1.data        35483                       # Number of read requests responded to by this memory
system.mem_ctrls.num_reads::switch_cpus2.dtb.walker          181                       # Number of read requests responded to by this memory
system.mem_ctrls.num_reads::switch_cpus2.itb.walker           78                       # Number of read requests responded to by this memory
system.mem_ctrls.num_reads::switch_cpus2.inst        25130                       # Number of read requests responded to by this memory
system.mem_ctrls.num_reads::switch_cpus2.data       155173                       # Number of read requests responded to by this memory
system.mem_ctrls.num_reads::switch_cpus3.dtb.walker          279                       # Number of read requests responded to by this memory
system.mem_ctrls.num_reads::switch_cpus3.itb.walker          167                       # Number of read requests responded to by this memory
system.mem_ctrls.num_reads::switch_cpus3.inst        40396                       # Number of read requests responded to by this memory
system.mem_ctrls.num_reads::switch_cpus3.data       339966                       # Number of read requests responded to by this memory
system.mem_ctrls.num_reads::total             1043396                       # Number of read requests responded to by this memory
system.mem_ctrls.num_writes::writebacks        782173                       # Number of write requests responded to by this memory
system.mem_ctrls.num_writes::total             782173                       # Number of write requests responded to by this memory
system.mem_ctrls.bw_read::switch_cpus0.dtb.walker        79075                       # Total read bandwidth from this memory (bytes/s)
system.mem_ctrls.bw_read::switch_cpus0.itb.walker        34436                       # Total read bandwidth from this memory (bytes/s)
system.mem_ctrls.bw_read::switch_cpus0.inst      6837918                       # Total read bandwidth from this memory (bytes/s)
system.mem_ctrls.bw_read::switch_cpus0.data     47045986                       # Total read bandwidth from this memory (bytes/s)
system.mem_ctrls.bw_read::switch_cpus1.dtb.walker       299081                       # Total read bandwidth from this memory (bytes/s)
system.mem_ctrls.bw_read::switch_cpus1.itb.walker       100119                       # Total read bandwidth from this memory (bytes/s)
system.mem_ctrls.bw_read::switch_cpus1.inst      2555387                       # Total read bandwidth from this memory (bytes/s)
system.mem_ctrls.bw_read::switch_cpus1.data      4525494                       # Total read bandwidth from this memory (bytes/s)
system.mem_ctrls.bw_read::switch_cpus2.dtb.walker        23085                       # Total read bandwidth from this memory (bytes/s)
system.mem_ctrls.bw_read::switch_cpus2.itb.walker         9948                       # Total read bandwidth from this memory (bytes/s)
system.mem_ctrls.bw_read::switch_cpus2.inst      3205075                       # Total read bandwidth from this memory (bytes/s)
system.mem_ctrls.bw_read::switch_cpus2.data     19790732                       # Total read bandwidth from this memory (bytes/s)
system.mem_ctrls.bw_read::switch_cpus3.dtb.walker        35584                       # Total read bandwidth from this memory (bytes/s)
system.mem_ctrls.bw_read::switch_cpus3.itb.walker        21299                       # Total read bandwidth from this memory (bytes/s)
system.mem_ctrls.bw_read::switch_cpus3.inst      5152097                       # Total read bandwidth from this memory (bytes/s)
system.mem_ctrls.bw_read::switch_cpus3.data     43359193                       # Total read bandwidth from this memory (bytes/s)
system.mem_ctrls.bw_read::total             133074509                       # Total read bandwidth from this memory (bytes/s)
system.mem_ctrls.bw_inst_read::switch_cpus0.inst      6837918                       # Instruction read bandwidth from this memory (bytes/s)
system.mem_ctrls.bw_inst_read::switch_cpus1.inst      2555387                       # Instruction read bandwidth from this memory (bytes/s)
system.mem_ctrls.bw_inst_read::switch_cpus2.inst      3205075                       # Instruction read bandwidth from this memory (bytes/s)
system.mem_ctrls.bw_inst_read::switch_cpus3.inst      5152097                       # Instruction read bandwidth from this memory (bytes/s)
system.mem_ctrls.bw_inst_read::total         17750478                       # Instruction read bandwidth from this memory (bytes/s)
system.mem_ctrls.bw_write::writebacks        99758182                       # Write bandwidth from this memory (bytes/s)
system.mem_ctrls.bw_write::total             99758182                       # Write bandwidth from this memory (bytes/s)
system.mem_ctrls.bw_total::writebacks        99758182                       # Total bandwidth to/from this memory (bytes/s)
system.mem_ctrls.bw_total::switch_cpus0.dtb.walker        79075                       # Total bandwidth to/from this memory (bytes/s)
system.mem_ctrls.bw_total::switch_cpus0.itb.walker        34436                       # Total bandwidth to/from this memory (bytes/s)
system.mem_ctrls.bw_total::switch_cpus0.inst      6837918                       # Total bandwidth to/from this memory (bytes/s)
system.mem_ctrls.bw_total::switch_cpus0.data     47045986                       # Total bandwidth to/from this memory (bytes/s)
system.mem_ctrls.bw_total::switch_cpus1.dtb.walker       299081                       # Total bandwidth to/from this memory (bytes/s)
system.mem_ctrls.bw_total::switch_cpus1.itb.walker       100119                       # Total bandwidth to/from this memory (bytes/s)
system.mem_ctrls.bw_total::switch_cpus1.inst      2555387                       # Total bandwidth to/from this memory (bytes/s)
system.mem_ctrls.bw_total::switch_cpus1.data      4525494                       # Total bandwidth to/from this memory (bytes/s)
system.mem_ctrls.bw_total::switch_cpus2.dtb.walker        23085                       # Total bandwidth to/from this memory (bytes/s)
system.mem_ctrls.bw_total::switch_cpus2.itb.walker         9948                       # Total bandwidth to/from this memory (bytes/s)
system.mem_ctrls.bw_total::switch_cpus2.inst      3205075                       # Total bandwidth to/from this memory (bytes/s)
system.mem_ctrls.bw_total::switch_cpus2.data     19790732                       # Total bandwidth to/from this memory (bytes/s)
system.mem_ctrls.bw_total::switch_cpus3.dtb.walker        35584                       # Total bandwidth to/from this memory (bytes/s)
system.mem_ctrls.bw_total::switch_cpus3.itb.walker        21299                       # Total bandwidth to/from this memory (bytes/s)
system.mem_ctrls.bw_total::switch_cpus3.inst      5152097                       # Total bandwidth to/from this memory (bytes/s)
system.mem_ctrls.bw_total::switch_cpus3.data     43359193                       # Total bandwidth to/from this memory (bytes/s)
system.mem_ctrls.bw_total::total            232832691                       # Total bandwidth to/from this memory (bytes/s)
system.mem_ctrls.readReqs                     1043396                       # Number of read requests accepted
system.mem_ctrls.writeReqs                     782173                       # Number of write requests accepted
system.mem_ctrls.readBursts                   1043396                       # Number of DRAM read bursts, including those serviced by the write queue
system.mem_ctrls.writeBursts                   782173                       # Number of DRAM write bursts, including those merged in the write queue
system.mem_ctrls.bytesReadDRAM               66485696                       # Total number of bytes read from DRAM
system.mem_ctrls.bytesReadWrQ                  291648                       # Total number of bytes read from write queue
system.mem_ctrls.bytesWritten                50057472                       # Total number of bytes written to DRAM
system.mem_ctrls.bytesReadSys                66777344                       # Total read bytes from the system interface side
system.mem_ctrls.bytesWrittenSys             50059072                       # Total written bytes from the system interface side
system.mem_ctrls.servicedByWrQ                   4557                       # Number of DRAM read bursts serviced by the write queue
system.mem_ctrls.mergedWrBursts                     1                       # Number of DRAM write bursts merged with an existing one
system.mem_ctrls.neitherReadNorWriteReqs            0                       # Number of requests that are neither read nor write
system.mem_ctrls.perBankRdBursts::0             41654                       # Per bank write bursts
system.mem_ctrls.perBankRdBursts::1             64048                       # Per bank write bursts
system.mem_ctrls.perBankRdBursts::2             61270                       # Per bank write bursts
system.mem_ctrls.perBankRdBursts::3             57057                       # Per bank write bursts
system.mem_ctrls.perBankRdBursts::4             57208                       # Per bank write bursts
system.mem_ctrls.perBankRdBursts::5             53859                       # Per bank write bursts
system.mem_ctrls.perBankRdBursts::6             64690                       # Per bank write bursts
system.mem_ctrls.perBankRdBursts::7             85826                       # Per bank write bursts
system.mem_ctrls.perBankRdBursts::8             72320                       # Per bank write bursts
system.mem_ctrls.perBankRdBursts::9            102918                       # Per bank write bursts
system.mem_ctrls.perBankRdBursts::10            87097                       # Per bank write bursts
system.mem_ctrls.perBankRdBursts::11            74391                       # Per bank write bursts
system.mem_ctrls.perBankRdBursts::12            46292                       # Per bank write bursts
system.mem_ctrls.perBankRdBursts::13            43882                       # Per bank write bursts
system.mem_ctrls.perBankRdBursts::14            74786                       # Per bank write bursts
system.mem_ctrls.perBankRdBursts::15            51541                       # Per bank write bursts
system.mem_ctrls.perBankWrBursts::0             38168                       # Per bank write bursts
system.mem_ctrls.perBankWrBursts::1             51643                       # Per bank write bursts
system.mem_ctrls.perBankWrBursts::2             46253                       # Per bank write bursts
system.mem_ctrls.perBankWrBursts::3             47086                       # Per bank write bursts
system.mem_ctrls.perBankWrBursts::4             45361                       # Per bank write bursts
system.mem_ctrls.perBankWrBursts::5             43871                       # Per bank write bursts
system.mem_ctrls.perBankWrBursts::6             45873                       # Per bank write bursts
system.mem_ctrls.perBankWrBursts::7             52292                       # Per bank write bursts
system.mem_ctrls.perBankWrBursts::8             54798                       # Per bank write bursts
system.mem_ctrls.perBankWrBursts::9             57376                       # Per bank write bursts
system.mem_ctrls.perBankWrBursts::10            62057                       # Per bank write bursts
system.mem_ctrls.perBankWrBursts::11            55810                       # Per bank write bursts
system.mem_ctrls.perBankWrBursts::12            42039                       # Per bank write bursts
system.mem_ctrls.perBankWrBursts::13            39804                       # Per bank write bursts
system.mem_ctrls.perBankWrBursts::14            56856                       # Per bank write bursts
system.mem_ctrls.perBankWrBursts::15            42861                       # Per bank write bursts
system.mem_ctrls.numRdRetry                         0                       # Number of times read queue was full causing retry
system.mem_ctrls.numWrRetry                        60                       # Number of times write queue was full causing retry
system.mem_ctrls.totGap                  501804249500                       # Total gap between requests
system.mem_ctrls.readPktSize::0                     0                       # Read request sizes (log2)
system.mem_ctrls.readPktSize::1                     0                       # Read request sizes (log2)
system.mem_ctrls.readPktSize::2                     0                       # Read request sizes (log2)
system.mem_ctrls.readPktSize::3                     0                       # Read request sizes (log2)
system.mem_ctrls.readPktSize::4                     0                       # Read request sizes (log2)
system.mem_ctrls.readPktSize::5                     0                       # Read request sizes (log2)
system.mem_ctrls.readPktSize::6               1043396                       # Read request sizes (log2)
system.mem_ctrls.writePktSize::0                    0                       # Write request sizes (log2)
system.mem_ctrls.writePktSize::1                    0                       # Write request sizes (log2)
system.mem_ctrls.writePktSize::2                    0                       # Write request sizes (log2)
system.mem_ctrls.writePktSize::3                    0                       # Write request sizes (log2)
system.mem_ctrls.writePktSize::4                    0                       # Write request sizes (log2)
system.mem_ctrls.writePktSize::5                    0                       # Write request sizes (log2)
system.mem_ctrls.writePktSize::6               782173                       # Write request sizes (log2)
system.mem_ctrls.rdQLenPdf::0                  645143                       # What read queue length does an incoming req see
system.mem_ctrls.rdQLenPdf::1                  345808                       # What read queue length does an incoming req see
system.mem_ctrls.rdQLenPdf::2                   34574                       # What read queue length does an incoming req see
system.mem_ctrls.rdQLenPdf::3                   10843                       # What read queue length does an incoming req see
system.mem_ctrls.rdQLenPdf::4                    1625                       # What read queue length does an incoming req see
system.mem_ctrls.rdQLenPdf::5                     547                       # What read queue length does an incoming req see
system.mem_ctrls.rdQLenPdf::6                     191                       # What read queue length does an incoming req see
system.mem_ctrls.rdQLenPdf::7                      83                       # What read queue length does an incoming req see
system.mem_ctrls.rdQLenPdf::8                      22                       # What read queue length does an incoming req see
system.mem_ctrls.rdQLenPdf::9                       3                       # What read queue length does an incoming req see
system.mem_ctrls.rdQLenPdf::10                      0                       # What read queue length does an incoming req see
system.mem_ctrls.rdQLenPdf::11                      0                       # What read queue length does an incoming req see
system.mem_ctrls.rdQLenPdf::12                      0                       # What read queue length does an incoming req see
system.mem_ctrls.rdQLenPdf::13                      0                       # What read queue length does an incoming req see
system.mem_ctrls.rdQLenPdf::14                      0                       # What read queue length does an incoming req see
system.mem_ctrls.rdQLenPdf::15                      0                       # What read queue length does an incoming req see
system.mem_ctrls.rdQLenPdf::16                      0                       # What read queue length does an incoming req see
system.mem_ctrls.rdQLenPdf::17                      0                       # What read queue length does an incoming req see
system.mem_ctrls.rdQLenPdf::18                      0                       # What read queue length does an incoming req see
system.mem_ctrls.rdQLenPdf::19                      0                       # What read queue length does an incoming req see
system.mem_ctrls.rdQLenPdf::20                      0                       # What read queue length does an incoming req see
system.mem_ctrls.rdQLenPdf::21                      0                       # What read queue length does an incoming req see
system.mem_ctrls.rdQLenPdf::22                      0                       # What read queue length does an incoming req see
system.mem_ctrls.rdQLenPdf::23                      0                       # What read queue length does an incoming req see
system.mem_ctrls.rdQLenPdf::24                      0                       # What read queue length does an incoming req see
system.mem_ctrls.rdQLenPdf::25                      0                       # What read queue length does an incoming req see
system.mem_ctrls.rdQLenPdf::26                      0                       # What read queue length does an incoming req see
system.mem_ctrls.rdQLenPdf::27                      0                       # What read queue length does an incoming req see
system.mem_ctrls.rdQLenPdf::28                      0                       # What read queue length does an incoming req see
system.mem_ctrls.rdQLenPdf::29                      0                       # What read queue length does an incoming req see
system.mem_ctrls.rdQLenPdf::30                      0                       # What read queue length does an incoming req see
system.mem_ctrls.rdQLenPdf::31                      0                       # What read queue length does an incoming req see
system.mem_ctrls.wrQLenPdf::0                       0                       # What write queue length does an incoming req see
system.mem_ctrls.wrQLenPdf::1                       0                       # What write queue length does an incoming req see
system.mem_ctrls.wrQLenPdf::2                       0                       # What write queue length does an incoming req see
system.mem_ctrls.wrQLenPdf::3                       1                       # What write queue length does an incoming req see
system.mem_ctrls.wrQLenPdf::4                       1                       # What write queue length does an incoming req see
system.mem_ctrls.wrQLenPdf::5                       1                       # What write queue length does an incoming req see
system.mem_ctrls.wrQLenPdf::6                       1                       # What write queue length does an incoming req see
system.mem_ctrls.wrQLenPdf::7                       1                       # What write queue length does an incoming req see
system.mem_ctrls.wrQLenPdf::8                       1                       # What write queue length does an incoming req see
system.mem_ctrls.wrQLenPdf::9                       1                       # What write queue length does an incoming req see
system.mem_ctrls.wrQLenPdf::10                      1                       # What write queue length does an incoming req see
system.mem_ctrls.wrQLenPdf::11                      1                       # What write queue length does an incoming req see
system.mem_ctrls.wrQLenPdf::12                      1                       # What write queue length does an incoming req see
system.mem_ctrls.wrQLenPdf::13                      1                       # What write queue length does an incoming req see
system.mem_ctrls.wrQLenPdf::14                      1                       # What write queue length does an incoming req see
system.mem_ctrls.wrQLenPdf::15                  11015                       # What write queue length does an incoming req see
system.mem_ctrls.wrQLenPdf::16                  13052                       # What write queue length does an incoming req see
system.mem_ctrls.wrQLenPdf::17                  30320                       # What write queue length does an incoming req see
system.mem_ctrls.wrQLenPdf::18                  42546                       # What write queue length does an incoming req see
system.mem_ctrls.wrQLenPdf::19                  44746                       # What write queue length does an incoming req see
system.mem_ctrls.wrQLenPdf::20                  45109                       # What write queue length does an incoming req see
system.mem_ctrls.wrQLenPdf::21                  46078                       # What write queue length does an incoming req see
system.mem_ctrls.wrQLenPdf::22                  46605                       # What write queue length does an incoming req see
system.mem_ctrls.wrQLenPdf::23                  48040                       # What write queue length does an incoming req see
system.mem_ctrls.wrQLenPdf::24                  47933                       # What write queue length does an incoming req see
system.mem_ctrls.wrQLenPdf::25                  50247                       # What write queue length does an incoming req see
system.mem_ctrls.wrQLenPdf::26                  51711                       # What write queue length does an incoming req see
system.mem_ctrls.wrQLenPdf::27                  48903                       # What write queue length does an incoming req see
system.mem_ctrls.wrQLenPdf::28                  49630                       # What write queue length does an incoming req see
system.mem_ctrls.wrQLenPdf::29                  52851                       # What write queue length does an incoming req see
system.mem_ctrls.wrQLenPdf::30                  48446                       # What write queue length does an incoming req see
system.mem_ctrls.wrQLenPdf::31                  48432                       # What write queue length does an incoming req see
system.mem_ctrls.wrQLenPdf::32                  46163                       # What write queue length does an incoming req see
system.mem_ctrls.wrQLenPdf::33                   1272                       # What write queue length does an incoming req see
system.mem_ctrls.wrQLenPdf::34                   1094                       # What write queue length does an incoming req see
system.mem_ctrls.wrQLenPdf::35                    808                       # What write queue length does an incoming req see
system.mem_ctrls.wrQLenPdf::36                    595                       # What write queue length does an incoming req see
system.mem_ctrls.wrQLenPdf::37                    453                       # What write queue length does an incoming req see
system.mem_ctrls.wrQLenPdf::38                    439                       # What write queue length does an incoming req see
system.mem_ctrls.wrQLenPdf::39                    375                       # What write queue length does an incoming req see
system.mem_ctrls.wrQLenPdf::40                    293                       # What write queue length does an incoming req see
system.mem_ctrls.wrQLenPdf::41                    347                       # What write queue length does an incoming req see
system.mem_ctrls.wrQLenPdf::42                    279                       # What write queue length does an incoming req see
system.mem_ctrls.wrQLenPdf::43                    275                       # What write queue length does an incoming req see
system.mem_ctrls.wrQLenPdf::44                    301                       # What write queue length does an incoming req see
system.mem_ctrls.wrQLenPdf::45                    300                       # What write queue length does an incoming req see
system.mem_ctrls.wrQLenPdf::46                    369                       # What write queue length does an incoming req see
system.mem_ctrls.wrQLenPdf::47                    302                       # What write queue length does an incoming req see
system.mem_ctrls.wrQLenPdf::48                    237                       # What write queue length does an incoming req see
system.mem_ctrls.wrQLenPdf::49                    263                       # What write queue length does an incoming req see
system.mem_ctrls.wrQLenPdf::50                    252                       # What write queue length does an incoming req see
system.mem_ctrls.wrQLenPdf::51                    207                       # What write queue length does an incoming req see
system.mem_ctrls.wrQLenPdf::52                    174                       # What write queue length does an incoming req see
system.mem_ctrls.wrQLenPdf::53                    190                       # What write queue length does an incoming req see
system.mem_ctrls.wrQLenPdf::54                    168                       # What write queue length does an incoming req see
system.mem_ctrls.wrQLenPdf::55                    193                       # What write queue length does an incoming req see
system.mem_ctrls.wrQLenPdf::56                    171                       # What write queue length does an incoming req see
system.mem_ctrls.wrQLenPdf::57                    149                       # What write queue length does an incoming req see
system.mem_ctrls.wrQLenPdf::58                    131                       # What write queue length does an incoming req see
system.mem_ctrls.wrQLenPdf::59                    150                       # What write queue length does an incoming req see
system.mem_ctrls.wrQLenPdf::60                    115                       # What write queue length does an incoming req see
system.mem_ctrls.wrQLenPdf::61                     91                       # What write queue length does an incoming req see
system.mem_ctrls.wrQLenPdf::62                    127                       # What write queue length does an incoming req see
system.mem_ctrls.wrQLenPdf::63                    213                       # What write queue length does an incoming req see
system.mem_ctrls.bytesPerActivate::samples       576146                       # Bytes accessed per row activation
system.mem_ctrls.bytesPerActivate::mean    202.282283                       # Bytes accessed per row activation
system.mem_ctrls.bytesPerActivate::gmean   126.846968                       # Bytes accessed per row activation
system.mem_ctrls.bytesPerActivate::stdev   246.175876                       # Bytes accessed per row activation
system.mem_ctrls.bytesPerActivate::0-127       299070     51.91%     51.91% # Bytes accessed per row activation
system.mem_ctrls.bytesPerActivate::128-255       140210     24.34%     76.24% # Bytes accessed per row activation
system.mem_ctrls.bytesPerActivate::256-383        45995      7.98%     84.23% # Bytes accessed per row activation
system.mem_ctrls.bytesPerActivate::384-511        24690      4.29%     88.51% # Bytes accessed per row activation
system.mem_ctrls.bytesPerActivate::512-639        16235      2.82%     91.33% # Bytes accessed per row activation
system.mem_ctrls.bytesPerActivate::640-767        10844      1.88%     93.21% # Bytes accessed per row activation
system.mem_ctrls.bytesPerActivate::768-895         7205      1.25%     94.46% # Bytes accessed per row activation
system.mem_ctrls.bytesPerActivate::896-1023         5712      0.99%     95.46% # Bytes accessed per row activation
system.mem_ctrls.bytesPerActivate::1024-1151        26185      4.54%    100.00% # Bytes accessed per row activation
system.mem_ctrls.bytesPerActivate::total       576146                       # Bytes accessed per row activation
system.mem_ctrls.rdPerTurnAround::samples        45036                       # Reads before turning the bus around for writes
system.mem_ctrls.rdPerTurnAround::mean      23.381939                       # Reads before turning the bus around for writes
system.mem_ctrls.rdPerTurnAround::stdev     80.631954                       # Reads before turning the bus around for writes
system.mem_ctrls.rdPerTurnAround::0-1023        45035    100.00%    100.00% # Reads before turning the bus around for writes
system.mem_ctrls.rdPerTurnAround::16384-17407            1      0.00%    100.00% # Reads before turning the bus around for writes
system.mem_ctrls.rdPerTurnAround::total         45036                       # Reads before turning the bus around for writes
system.mem_ctrls.wrPerTurnAround::samples        45036                       # Writes before turning the bus around for reads
system.mem_ctrls.wrPerTurnAround::mean      17.367173                       # Writes before turning the bus around for reads
system.mem_ctrls.wrPerTurnAround::gmean     16.947259                       # Writes before turning the bus around for reads
system.mem_ctrls.wrPerTurnAround::stdev      6.443218                       # Writes before turning the bus around for reads
system.mem_ctrls.wrPerTurnAround::16-19         43238     96.01%     96.01% # Writes before turning the bus around for reads
system.mem_ctrls.wrPerTurnAround::20-23           597      1.33%     97.33% # Writes before turning the bus around for reads
system.mem_ctrls.wrPerTurnAround::24-27            88      0.20%     97.53% # Writes before turning the bus around for reads
system.mem_ctrls.wrPerTurnAround::28-31            96      0.21%     97.74% # Writes before turning the bus around for reads
system.mem_ctrls.wrPerTurnAround::32-35           443      0.98%     98.73% # Writes before turning the bus around for reads
system.mem_ctrls.wrPerTurnAround::36-39            73      0.16%     98.89% # Writes before turning the bus around for reads
system.mem_ctrls.wrPerTurnAround::40-43            57      0.13%     99.01% # Writes before turning the bus around for reads
system.mem_ctrls.wrPerTurnAround::44-47            41      0.09%     99.11% # Writes before turning the bus around for reads
system.mem_ctrls.wrPerTurnAround::48-51            23      0.05%     99.16% # Writes before turning the bus around for reads
system.mem_ctrls.wrPerTurnAround::52-55            20      0.04%     99.20% # Writes before turning the bus around for reads
system.mem_ctrls.wrPerTurnAround::56-59            20      0.04%     99.25% # Writes before turning the bus around for reads
system.mem_ctrls.wrPerTurnAround::60-63            16      0.04%     99.28% # Writes before turning the bus around for reads
system.mem_ctrls.wrPerTurnAround::64-67           206      0.46%     99.74% # Writes before turning the bus around for reads
system.mem_ctrls.wrPerTurnAround::68-71            10      0.02%     99.76% # Writes before turning the bus around for reads
system.mem_ctrls.wrPerTurnAround::72-75             6      0.01%     99.77% # Writes before turning the bus around for reads
system.mem_ctrls.wrPerTurnAround::76-79            10      0.02%     99.80% # Writes before turning the bus around for reads
system.mem_ctrls.wrPerTurnAround::80-83            11      0.02%     99.82% # Writes before turning the bus around for reads
system.mem_ctrls.wrPerTurnAround::84-87             4      0.01%     99.83% # Writes before turning the bus around for reads
system.mem_ctrls.wrPerTurnAround::88-91             6      0.01%     99.84% # Writes before turning the bus around for reads
system.mem_ctrls.wrPerTurnAround::92-95             8      0.02%     99.86% # Writes before turning the bus around for reads
system.mem_ctrls.wrPerTurnAround::96-99             3      0.01%     99.87% # Writes before turning the bus around for reads
system.mem_ctrls.wrPerTurnAround::100-103            5      0.01%     99.88% # Writes before turning the bus around for reads
system.mem_ctrls.wrPerTurnAround::104-107            3      0.01%     99.88% # Writes before turning the bus around for reads
system.mem_ctrls.wrPerTurnAround::108-111           18      0.04%     99.92% # Writes before turning the bus around for reads
system.mem_ctrls.wrPerTurnAround::112-115            1      0.00%     99.93% # Writes before turning the bus around for reads
system.mem_ctrls.wrPerTurnAround::116-119            3      0.01%     99.93% # Writes before turning the bus around for reads
system.mem_ctrls.wrPerTurnAround::124-127            1      0.00%     99.94% # Writes before turning the bus around for reads
system.mem_ctrls.wrPerTurnAround::128-131           10      0.02%     99.96% # Writes before turning the bus around for reads
system.mem_ctrls.wrPerTurnAround::132-135            1      0.00%     99.96% # Writes before turning the bus around for reads
system.mem_ctrls.wrPerTurnAround::136-139            1      0.00%     99.96% # Writes before turning the bus around for reads
system.mem_ctrls.wrPerTurnAround::140-143            2      0.00%     99.97% # Writes before turning the bus around for reads
system.mem_ctrls.wrPerTurnAround::144-147            3      0.01%     99.97% # Writes before turning the bus around for reads
system.mem_ctrls.wrPerTurnAround::148-151            2      0.00%     99.98% # Writes before turning the bus around for reads
system.mem_ctrls.wrPerTurnAround::156-159            1      0.00%     99.98% # Writes before turning the bus around for reads
system.mem_ctrls.wrPerTurnAround::160-163            4      0.01%     99.99% # Writes before turning the bus around for reads
system.mem_ctrls.wrPerTurnAround::168-171            1      0.00%     99.99% # Writes before turning the bus around for reads
system.mem_ctrls.wrPerTurnAround::176-179            2      0.00%    100.00% # Writes before turning the bus around for reads
system.mem_ctrls.wrPerTurnAround::188-191            1      0.00%    100.00% # Writes before turning the bus around for reads
system.mem_ctrls.wrPerTurnAround::192-195            1      0.00%    100.00% # Writes before turning the bus around for reads
system.mem_ctrls.wrPerTurnAround::total         45036                       # Writes before turning the bus around for reads
system.mem_ctrls.totQLat                  20665560252                       # Total ticks spent queuing
system.mem_ctrls.totMemAccLat             40143791502                       # Total ticks spent from burst creation until serviced by the DRAM
system.mem_ctrls.totBusLat                 5194195000                       # Total ticks spent in databus transfers
system.mem_ctrls.avgQLat                     19892.94                       # Average queueing delay per DRAM burst
system.mem_ctrls.avgBusLat                    5000.00                       # Average bus latency per DRAM burst
system.mem_ctrls.avgMemAccLat                38642.94                       # Average memory access latency per DRAM burst
system.mem_ctrls.avgRdBW                       132.49                       # Average DRAM read bandwidth in MiByte/s
system.mem_ctrls.avgWrBW                        99.75                       # Average achieved write bandwidth in MiByte/s
system.mem_ctrls.avgRdBWSys                    133.07                       # Average system read bandwidth in MiByte/s
system.mem_ctrls.avgWrBWSys                     99.76                       # Average system write bandwidth in MiByte/s
system.mem_ctrls.peakBW                      12800.00                       # Theoretical peak bandwidth in MiByte/s
system.mem_ctrls.busUtil                         1.81                       # Data bus utilization in percentage
system.mem_ctrls.busUtilRead                     1.04                       # Data bus utilization in percentage for reads
system.mem_ctrls.busUtilWrite                    0.78                       # Data bus utilization in percentage for writes
system.mem_ctrls.avgRdQLen                       1.22                       # Average read queue length when enqueuing
system.mem_ctrls.avgWrQLen                      25.02                       # Average write queue length when enqueuing
system.mem_ctrls.readRowHits                   757722                       # Number of row buffer hits during reads
system.mem_ctrls.writeRowHits                  487125                       # Number of row buffer hits during writes
system.mem_ctrls.readRowHitRate                 72.94                       # Row buffer hit rate for reads
system.mem_ctrls.writeRowHitRate                62.28                       # Row buffer hit rate for writes
system.mem_ctrls.avgGap                     274875.53                       # Average gap between requests
system.mem_ctrls.pageHitRate                    68.36                       # Row buffer hit rate, read and write combined
system.mem_ctrls_0.actEnergy               2039325120                       # Energy for activate commands per rank (pJ)
system.mem_ctrls_0.preEnergy               1112727000                       # Energy for precharge commands per rank (pJ)
system.mem_ctrls_0.readEnergy              3845532600                       # Energy for read commands per rank (pJ)
system.mem_ctrls_0.writeEnergy             2401060320                       # Energy for write commands per rank (pJ)
system.mem_ctrls_0.refreshEnergy          32810765520                       # Energy for refresh commands per rank (pJ)
system.mem_ctrls_0.actBackEnergy         157444987320                       # Energy for active background per rank (pJ)
system.mem_ctrls_0.preBackEnergy         163297812750                       # Energy for precharge background per rank (pJ)
system.mem_ctrls_0.totalEnergy           362952210630                       # Total energy per rank (pJ)
system.mem_ctrls_0.averagePower            722.514742                       # Core power per rank (mW)
system.mem_ctrls_0.memoryStateTime::IDLE 270415638000                       # Time in different power states
system.mem_ctrls_0.memoryStateTime::REF   16756480000                       # Time in different power states
system.mem_ctrls_0.memoryStateTime::PRE_PDN            0                       # Time in different power states
system.mem_ctrls_0.memoryStateTime::ACT  214635534000                       # Time in different power states
system.mem_ctrls_0.memoryStateTime::ACT_PDN            0                       # Time in different power states
system.mem_ctrls_1.actEnergy               2347629480                       # Energy for activate commands per rank (pJ)
system.mem_ctrls_1.preEnergy               1280948625                       # Energy for precharge commands per rank (pJ)
system.mem_ctrls_1.readEnergy              4367922000                       # Energy for read commands per rank (pJ)
system.mem_ctrls_1.writeEnergy             2667051360                       # Energy for write commands per rank (pJ)
system.mem_ctrls_1.refreshEnergy          32810765520                       # Energy for refresh commands per rank (pJ)
system.mem_ctrls_1.actBackEnergy         172502413695                       # Energy for active background per rank (pJ)
system.mem_ctrls_1.preBackEnergy         150089544000                       # Energy for precharge background per rank (pJ)
system.mem_ctrls_1.totalEnergy           366066274680                       # Total energy per rank (pJ)
system.mem_ctrls_1.averagePower            728.713787                       # Core power per rank (mW)
system.mem_ctrls_1.memoryStateTime::IDLE 248372764500                       # Time in different power states
system.mem_ctrls_1.memoryStateTime::REF   16756480000                       # Time in different power states
system.mem_ctrls_1.memoryStateTime::PRE_PDN            0                       # Time in different power states
system.mem_ctrls_1.memoryStateTime::ACT  236678995500                       # Time in different power states
system.mem_ctrls_1.memoryStateTime::ACT_PDN            0                       # Time in different power states
system.realview.nvmem.pwrStateResidencyTicks::UNDEFINED 3738195183000                       # Cumulative time (in ticks) in various power states
system.realview.vram.pwrStateResidencyTicks::UNDEFINED 3738195183000                       # Cumulative time (in ticks) in various power states
system.pwrStateResidencyTicks::UNDEFINED 3738195183000                       # Cumulative time (in ticks) in various power states
system.bridge.pwrStateResidencyTicks::UNDEFINED 3738195183000                       # Cumulative time (in ticks) in various power states
system.cf0.dma_read_full_pages                      0                       # Number of full page size DMA reads (not PRD).
system.cf0.dma_read_bytes                           0                       # Number of bytes transfered via DMA reads (not PRD).
system.cf0.dma_read_txs                             0                       # Number of DMA read transactions (not PRD).
system.cf0.dma_write_full_pages                  1069                       # Number of full page size DMA writes.
system.cf0.dma_write_bytes                    4423680                       # Number of bytes transfered via DMA writes.
system.cf0.dma_write_txs                         1108                       # Number of DMA write transactions.
system.cpu_voltage_domain.voltage                   1                       # Voltage in Volts
system.cpu_clk_domain.clock                       500                       # Clock period in ticks
system.cpu0.dstage2_mmu.stage2_tlb.walker.pwrStateResidencyTicks::UNDEFINED 3738195183000                       # Cumulative time (in ticks) in various power states
system.cpu0.dstage2_mmu.stage2_tlb.walker.walks            0                       # Table walker walks requested
system.cpu0.dstage2_mmu.stage2_tlb.walker.walkRequestOrigin_Requested::Data            0                       # Table walker requests started/completed, data/inst
system.cpu0.dstage2_mmu.stage2_tlb.walker.walkRequestOrigin_Requested::Inst            0                       # Table walker requests started/completed, data/inst
system.cpu0.dstage2_mmu.stage2_tlb.walker.walkRequestOrigin_Requested::total            0                       # Table walker requests started/completed, data/inst
system.cpu0.dstage2_mmu.stage2_tlb.walker.walkRequestOrigin_Completed::Data            0                       # Table walker requests started/completed, data/inst
system.cpu0.dstage2_mmu.stage2_tlb.walker.walkRequestOrigin_Completed::Inst            0                       # Table walker requests started/completed, data/inst
system.cpu0.dstage2_mmu.stage2_tlb.walker.walkRequestOrigin_Completed::total            0                       # Table walker requests started/completed, data/inst
system.cpu0.dstage2_mmu.stage2_tlb.walker.walkRequestOrigin::total            0                       # Table walker requests started/completed, data/inst
system.cpu0.dstage2_mmu.stage2_tlb.inst_hits            0                       # ITB inst hits
system.cpu0.dstage2_mmu.stage2_tlb.inst_misses            0                       # ITB inst misses
system.cpu0.dstage2_mmu.stage2_tlb.read_hits            0                       # DTB read hits
system.cpu0.dstage2_mmu.stage2_tlb.read_misses            0                       # DTB read misses
system.cpu0.dstage2_mmu.stage2_tlb.write_hits            0                       # DTB write hits
system.cpu0.dstage2_mmu.stage2_tlb.write_misses            0                       # DTB write misses
system.cpu0.dstage2_mmu.stage2_tlb.flush_tlb            0                       # Number of times complete TLB was flushed
system.cpu0.dstage2_mmu.stage2_tlb.flush_tlb_mva            0                       # Number of times TLB was flushed by MVA
system.cpu0.dstage2_mmu.stage2_tlb.flush_tlb_mva_asid            0                       # Number of times TLB was flushed by MVA & ASID
system.cpu0.dstage2_mmu.stage2_tlb.flush_tlb_asid            0                       # Number of times TLB was flushed by ASID
system.cpu0.dstage2_mmu.stage2_tlb.flush_entries            0                       # Number of entries that have been flushed from TLB
system.cpu0.dstage2_mmu.stage2_tlb.align_faults            0                       # Number of TLB faults due to alignment restrictions
system.cpu0.dstage2_mmu.stage2_tlb.prefetch_faults            0                       # Number of TLB faults due to prefetch
system.cpu0.dstage2_mmu.stage2_tlb.domain_faults            0                       # Number of TLB faults due to domain restrictions
system.cpu0.dstage2_mmu.stage2_tlb.perms_faults            0                       # Number of TLB faults due to permissions restrictions
system.cpu0.dstage2_mmu.stage2_tlb.read_accesses            0                       # DTB read accesses
system.cpu0.dstage2_mmu.stage2_tlb.write_accesses            0                       # DTB write accesses
system.cpu0.dstage2_mmu.stage2_tlb.inst_accesses            0                       # ITB inst accesses
system.cpu0.dstage2_mmu.stage2_tlb.hits             0                       # DTB hits
system.cpu0.dstage2_mmu.stage2_tlb.misses            0                       # DTB misses
system.cpu0.dstage2_mmu.stage2_tlb.accesses            0                       # DTB accesses
system.cpu0.dtb.walker.pwrStateResidencyTicks::UNDEFINED 3738195183000                       # Cumulative time (in ticks) in various power states
system.cpu0.dtb.walker.walks                        0                       # Table walker walks requested
system.cpu0.dtb.walker.walkRequestOrigin_Requested::Data            0                       # Table walker requests started/completed, data/inst
system.cpu0.dtb.walker.walkRequestOrigin_Requested::Inst            0                       # Table walker requests started/completed, data/inst
system.cpu0.dtb.walker.walkRequestOrigin_Requested::total            0                       # Table walker requests started/completed, data/inst
system.cpu0.dtb.walker.walkRequestOrigin_Completed::Data            0                       # Table walker requests started/completed, data/inst
system.cpu0.dtb.walker.walkRequestOrigin_Completed::Inst            0                       # Table walker requests started/completed, data/inst
system.cpu0.dtb.walker.walkRequestOrigin_Completed::total            0                       # Table walker requests started/completed, data/inst
system.cpu0.dtb.walker.walkRequestOrigin::total            0                       # Table walker requests started/completed, data/inst
system.cpu0.dtb.inst_hits                           0                       # ITB inst hits
system.cpu0.dtb.inst_misses                         0                       # ITB inst misses
system.cpu0.dtb.read_hits                           0                       # DTB read hits
system.cpu0.dtb.read_misses                         0                       # DTB read misses
system.cpu0.dtb.write_hits                          0                       # DTB write hits
system.cpu0.dtb.write_misses                        0                       # DTB write misses
system.cpu0.dtb.flush_tlb                           0                       # Number of times complete TLB was flushed
system.cpu0.dtb.flush_tlb_mva                       0                       # Number of times TLB was flushed by MVA
system.cpu0.dtb.flush_tlb_mva_asid                  0                       # Number of times TLB was flushed by MVA & ASID
system.cpu0.dtb.flush_tlb_asid                      0                       # Number of times TLB was flushed by ASID
system.cpu0.dtb.flush_entries                       0                       # Number of entries that have been flushed from TLB
system.cpu0.dtb.align_faults                        0                       # Number of TLB faults due to alignment restrictions
system.cpu0.dtb.prefetch_faults                     0                       # Number of TLB faults due to prefetch
system.cpu0.dtb.domain_faults                       0                       # Number of TLB faults due to domain restrictions
system.cpu0.dtb.perms_faults                        0                       # Number of TLB faults due to permissions restrictions
system.cpu0.dtb.read_accesses                       0                       # DTB read accesses
system.cpu0.dtb.write_accesses                      0                       # DTB write accesses
system.cpu0.dtb.inst_accesses                       0                       # ITB inst accesses
system.cpu0.dtb.hits                                0                       # DTB hits
system.cpu0.dtb.misses                              0                       # DTB misses
system.cpu0.dtb.accesses                            0                       # DTB accesses
system.cpu0.istage2_mmu.stage2_tlb.walker.pwrStateResidencyTicks::UNDEFINED 3738195183000                       # Cumulative time (in ticks) in various power states
system.cpu0.istage2_mmu.stage2_tlb.walker.walks            0                       # Table walker walks requested
system.cpu0.istage2_mmu.stage2_tlb.walker.walkRequestOrigin_Requested::Data            0                       # Table walker requests started/completed, data/inst
system.cpu0.istage2_mmu.stage2_tlb.walker.walkRequestOrigin_Requested::Inst            0                       # Table walker requests started/completed, data/inst
system.cpu0.istage2_mmu.stage2_tlb.walker.walkRequestOrigin_Requested::total            0                       # Table walker requests started/completed, data/inst
system.cpu0.istage2_mmu.stage2_tlb.walker.walkRequestOrigin_Completed::Data            0                       # Table walker requests started/completed, data/inst
system.cpu0.istage2_mmu.stage2_tlb.walker.walkRequestOrigin_Completed::Inst            0                       # Table walker requests started/completed, data/inst
system.cpu0.istage2_mmu.stage2_tlb.walker.walkRequestOrigin_Completed::total            0                       # Table walker requests started/completed, data/inst
system.cpu0.istage2_mmu.stage2_tlb.walker.walkRequestOrigin::total            0                       # Table walker requests started/completed, data/inst
system.cpu0.istage2_mmu.stage2_tlb.inst_hits            0                       # ITB inst hits
system.cpu0.istage2_mmu.stage2_tlb.inst_misses            0                       # ITB inst misses
system.cpu0.istage2_mmu.stage2_tlb.read_hits            0                       # DTB read hits
system.cpu0.istage2_mmu.stage2_tlb.read_misses            0                       # DTB read misses
system.cpu0.istage2_mmu.stage2_tlb.write_hits            0                       # DTB write hits
system.cpu0.istage2_mmu.stage2_tlb.write_misses            0                       # DTB write misses
system.cpu0.istage2_mmu.stage2_tlb.flush_tlb            0                       # Number of times complete TLB was flushed
system.cpu0.istage2_mmu.stage2_tlb.flush_tlb_mva            0                       # Number of times TLB was flushed by MVA
system.cpu0.istage2_mmu.stage2_tlb.flush_tlb_mva_asid            0                       # Number of times TLB was flushed by MVA & ASID
system.cpu0.istage2_mmu.stage2_tlb.flush_tlb_asid            0                       # Number of times TLB was flushed by ASID
system.cpu0.istage2_mmu.stage2_tlb.flush_entries            0                       # Number of entries that have been flushed from TLB
system.cpu0.istage2_mmu.stage2_tlb.align_faults            0                       # Number of TLB faults due to alignment restrictions
system.cpu0.istage2_mmu.stage2_tlb.prefetch_faults            0                       # Number of TLB faults due to prefetch
system.cpu0.istage2_mmu.stage2_tlb.domain_faults            0                       # Number of TLB faults due to domain restrictions
system.cpu0.istage2_mmu.stage2_tlb.perms_faults            0                       # Number of TLB faults due to permissions restrictions
system.cpu0.istage2_mmu.stage2_tlb.read_accesses            0                       # DTB read accesses
system.cpu0.istage2_mmu.stage2_tlb.write_accesses            0                       # DTB write accesses
system.cpu0.istage2_mmu.stage2_tlb.inst_accesses            0                       # ITB inst accesses
system.cpu0.istage2_mmu.stage2_tlb.hits             0                       # DTB hits
system.cpu0.istage2_mmu.stage2_tlb.misses            0                       # DTB misses
system.cpu0.istage2_mmu.stage2_tlb.accesses            0                       # DTB accesses
system.cpu0.itb.walker.pwrStateResidencyTicks::UNDEFINED 3738195183000                       # Cumulative time (in ticks) in various power states
system.cpu0.itb.walker.walks                        0                       # Table walker walks requested
system.cpu0.itb.walker.walkRequestOrigin_Requested::Data            0                       # Table walker requests started/completed, data/inst
system.cpu0.itb.walker.walkRequestOrigin_Requested::Inst            0                       # Table walker requests started/completed, data/inst
system.cpu0.itb.walker.walkRequestOrigin_Requested::total            0                       # Table walker requests started/completed, data/inst
system.cpu0.itb.walker.walkRequestOrigin_Completed::Data            0                       # Table walker requests started/completed, data/inst
system.cpu0.itb.walker.walkRequestOrigin_Completed::Inst            0                       # Table walker requests started/completed, data/inst
system.cpu0.itb.walker.walkRequestOrigin_Completed::total            0                       # Table walker requests started/completed, data/inst
system.cpu0.itb.walker.walkRequestOrigin::total            0                       # Table walker requests started/completed, data/inst
system.cpu0.itb.inst_hits                           0                       # ITB inst hits
system.cpu0.itb.inst_misses                         0                       # ITB inst misses
system.cpu0.itb.read_hits                           0                       # DTB read hits
system.cpu0.itb.read_misses                         0                       # DTB read misses
system.cpu0.itb.write_hits                          0                       # DTB write hits
system.cpu0.itb.write_misses                        0                       # DTB write misses
system.cpu0.itb.flush_tlb                           0                       # Number of times complete TLB was flushed
system.cpu0.itb.flush_tlb_mva                       0                       # Number of times TLB was flushed by MVA
system.cpu0.itb.flush_tlb_mva_asid                  0                       # Number of times TLB was flushed by MVA & ASID
system.cpu0.itb.flush_tlb_asid                      0                       # Number of times TLB was flushed by ASID
system.cpu0.itb.flush_entries                       0                       # Number of entries that have been flushed from TLB
system.cpu0.itb.align_faults                        0                       # Number of TLB faults due to alignment restrictions
system.cpu0.itb.prefetch_faults                     0                       # Number of TLB faults due to prefetch
system.cpu0.itb.domain_faults                       0                       # Number of TLB faults due to domain restrictions
system.cpu0.itb.perms_faults                        0                       # Number of TLB faults due to permissions restrictions
system.cpu0.itb.read_accesses                       0                       # DTB read accesses
system.cpu0.itb.write_accesses                      0                       # DTB write accesses
system.cpu0.itb.inst_accesses                       0                       # ITB inst accesses
system.cpu0.itb.hits                                0                       # DTB hits
system.cpu0.itb.misses                              0                       # DTB misses
system.cpu0.itb.accesses                            0                       # DTB accesses
system.cpu0.pwrStateResidencyTicks::ON   502348064500                       # Cumulative time (in ticks) in various power states
system.cpu0.numCycles                               0                       # number of cpu cycles simulated
system.cpu0.numWorkItemsStarted                     0                       # number of work items this cpu started
system.cpu0.numWorkItemsCompleted                   0                       # number of work items this cpu completed
system.cpu0.kern.inst.arm                           0                       # number of arm instructions executed
system.cpu0.kern.inst.quiesce                    7440                       # number of quiesce instructions executed
system.cpu0.committedInsts                          0                       # Number of instructions committed
system.cpu0.committedOps                            0                       # Number of ops (including micro ops) committed
system.cpu0.num_int_alu_accesses                    0                       # Number of integer alu accesses
system.cpu0.num_fp_alu_accesses                     0                       # Number of float alu accesses
system.cpu0.num_func_calls                          0                       # number of times a function call or return occured
system.cpu0.num_conditional_control_insts            0                       # number of instructions that are conditional controls
system.cpu0.num_int_insts                           0                       # number of integer instructions
system.cpu0.num_fp_insts                            0                       # number of float instructions
system.cpu0.num_int_register_reads                  0                       # number of times the integer registers were read
system.cpu0.num_int_register_writes                 0                       # number of times the integer registers were written
system.cpu0.num_fp_register_reads                   0                       # number of times the floating registers were read
system.cpu0.num_fp_register_writes                  0                       # number of times the floating registers were written
system.cpu0.num_mem_refs                            0                       # number of memory refs
system.cpu0.num_load_insts                          0                       # Number of load instructions
system.cpu0.num_store_insts                         0                       # Number of store instructions
system.cpu0.num_idle_cycles                         0                       # Number of idle cycles
system.cpu0.num_busy_cycles                         0                       # Number of busy cycles
system.cpu0.not_idle_fraction                       0                       # Percentage of non-idle cycles
system.cpu0.idle_fraction                           1                       # Percentage of idle cycles
system.cpu0.op_class::No_OpClass                    0                       # Class of executed instruction
system.cpu0.op_class::IntAlu                        0                       # Class of executed instruction
system.cpu0.op_class::IntMult                       0                       # Class of executed instruction
system.cpu0.op_class::IntDiv                        0                       # Class of executed instruction
system.cpu0.op_class::FloatAdd                      0                       # Class of executed instruction
system.cpu0.op_class::FloatCmp                      0                       # Class of executed instruction
system.cpu0.op_class::FloatCvt                      0                       # Class of executed instruction
system.cpu0.op_class::FloatMult                     0                       # Class of executed instruction
system.cpu0.op_class::FloatDiv                      0                       # Class of executed instruction
system.cpu0.op_class::FloatSqrt                     0                       # Class of executed instruction
system.cpu0.op_class::SimdAdd                       0                       # Class of executed instruction
system.cpu0.op_class::SimdAddAcc                    0                       # Class of executed instruction
system.cpu0.op_class::SimdAlu                       0                       # Class of executed instruction
system.cpu0.op_class::SimdCmp                       0                       # Class of executed instruction
system.cpu0.op_class::SimdCvt                       0                       # Class of executed instruction
system.cpu0.op_class::SimdMisc                      0                       # Class of executed instruction
system.cpu0.op_class::SimdMult                      0                       # Class of executed instruction
system.cpu0.op_class::SimdMultAcc                   0                       # Class of executed instruction
system.cpu0.op_class::SimdShift                     0                       # Class of executed instruction
system.cpu0.op_class::SimdShiftAcc                  0                       # Class of executed instruction
system.cpu0.op_class::SimdSqrt                      0                       # Class of executed instruction
system.cpu0.op_class::SimdFloatAdd                  0                       # Class of executed instruction
system.cpu0.op_class::SimdFloatAlu                  0                       # Class of executed instruction
system.cpu0.op_class::SimdFloatCmp                  0                       # Class of executed instruction
system.cpu0.op_class::SimdFloatCvt                  0                       # Class of executed instruction
system.cpu0.op_class::SimdFloatDiv                  0                       # Class of executed instruction
system.cpu0.op_class::SimdFloatMisc                 0                       # Class of executed instruction
system.cpu0.op_class::SimdFloatMult                 0                       # Class of executed instruction
system.cpu0.op_class::SimdFloatMultAcc              0                       # Class of executed instruction
system.cpu0.op_class::SimdFloatSqrt                 0                       # Class of executed instruction
system.cpu0.op_class::MemRead                       0                       # Class of executed instruction
system.cpu0.op_class::MemWrite                      0                       # Class of executed instruction
system.cpu0.op_class::IprAccess                     0                       # Class of executed instruction
system.cpu0.op_class::InstPrefetch                  0                       # Class of executed instruction
system.cpu0.op_class::total                         0                       # Class of executed instruction
system.cpu0.dcache.tags.pwrStateResidencyTicks::UNDEFINED 3738195183000                       # Cumulative time (in ticks) in various power states
system.cpu0.dcache.tags.replacements          5486077                       # number of replacements
system.cpu0.dcache.tags.tagsinuse          947.026397                       # Cycle average of tags in use
system.cpu0.dcache.tags.total_refs          155615177                       # Total number of references to valid blocks.
system.cpu0.dcache.tags.sampled_refs          5487088                       # Sample count of references to valid blocks.
system.cpu0.dcache.tags.avg_refs            28.360248                       # Average number of references to valid blocks.
system.cpu0.dcache.tags.warmup_cycle     3298837460000                       # Cycle when the warmup percentage was hit.
system.cpu0.dcache.tags.occ_blocks::switch_cpus0.data   947.026397                       # Average occupied blocks per requestor
system.cpu0.dcache.tags.occ_percent::switch_cpus0.data     0.924830                       # Average percentage of cache occupancy
system.cpu0.dcache.tags.occ_percent::total     0.924830                       # Average percentage of cache occupancy
system.cpu0.dcache.tags.occ_task_id_blocks::1024         1011                       # Occupied blocks per task id
system.cpu0.dcache.tags.age_task_id_blocks_1024::0           42                       # Occupied blocks per task id
system.cpu0.dcache.tags.age_task_id_blocks_1024::1          676                       # Occupied blocks per task id
system.cpu0.dcache.tags.age_task_id_blocks_1024::2          291                       # Occupied blocks per task id
system.cpu0.dcache.tags.age_task_id_blocks_1024::3            1                       # Occupied blocks per task id
system.cpu0.dcache.tags.age_task_id_blocks_1024::4            1                       # Occupied blocks per task id
system.cpu0.dcache.tags.occ_task_id_percent::1024     0.987305                       # Percentage of cache occupancy per task id
system.cpu0.dcache.tags.tag_accesses        383637651                       # Number of tag accesses
system.cpu0.dcache.tags.data_accesses       383637651                       # Number of data accesses
system.cpu0.dcache.pwrStateResidencyTicks::UNDEFINED 3738195183000                       # Cumulative time (in ticks) in various power states
system.cpu0.dcache.ReadReq_hits::switch_cpus0.data     95663152                       # number of ReadReq hits
system.cpu0.dcache.ReadReq_hits::total       95663152                       # number of ReadReq hits
system.cpu0.dcache.WriteReq_hits::switch_cpus0.data     54655561                       # number of WriteReq hits
system.cpu0.dcache.WriteReq_hits::total      54655561                       # number of WriteReq hits
system.cpu0.dcache.SoftPFReq_hits::switch_cpus0.data      1185400                       # number of SoftPFReq hits
system.cpu0.dcache.SoftPFReq_hits::total      1185400                       # number of SoftPFReq hits
system.cpu0.dcache.LoadLockedReq_hits::switch_cpus0.data      1804705                       # number of LoadLockedReq hits
system.cpu0.dcache.LoadLockedReq_hits::total      1804705                       # number of LoadLockedReq hits
system.cpu0.dcache.StoreCondReq_hits::switch_cpus0.data      1756559                       # number of StoreCondReq hits
system.cpu0.dcache.StoreCondReq_hits::total      1756559                       # number of StoreCondReq hits
system.cpu0.dcache.demand_hits::switch_cpus0.data    150318713                       # number of demand (read+write) hits
system.cpu0.dcache.demand_hits::total       150318713                       # number of demand (read+write) hits
system.cpu0.dcache.overall_hits::switch_cpus0.data    151504113                       # number of overall hits
system.cpu0.dcache.overall_hits::total      151504113                       # number of overall hits
system.cpu0.dcache.ReadReq_misses::switch_cpus0.data      6935014                       # number of ReadReq misses
system.cpu0.dcache.ReadReq_misses::total      6935014                       # number of ReadReq misses
system.cpu0.dcache.WriteReq_misses::switch_cpus0.data     25596928                       # number of WriteReq misses
system.cpu0.dcache.WriteReq_misses::total     25596928                       # number of WriteReq misses
system.cpu0.dcache.SoftPFReq_misses::switch_cpus0.data      1175597                       # number of SoftPFReq misses
system.cpu0.dcache.SoftPFReq_misses::total      1175597                       # number of SoftPFReq misses
system.cpu0.dcache.LoadLockedReq_misses::switch_cpus0.data       122016                       # number of LoadLockedReq misses
system.cpu0.dcache.LoadLockedReq_misses::total       122016                       # number of LoadLockedReq misses
system.cpu0.dcache.StoreCondReq_misses::switch_cpus0.data        73347                       # number of StoreCondReq misses
system.cpu0.dcache.StoreCondReq_misses::total        73347                       # number of StoreCondReq misses
system.cpu0.dcache.demand_misses::switch_cpus0.data     32531942                       # number of demand (read+write) misses
system.cpu0.dcache.demand_misses::total      32531942                       # number of demand (read+write) misses
system.cpu0.dcache.overall_misses::switch_cpus0.data     33707539                       # number of overall misses
system.cpu0.dcache.overall_misses::total     33707539                       # number of overall misses
system.cpu0.dcache.ReadReq_miss_latency::switch_cpus0.data  94105064000                       # number of ReadReq miss cycles
system.cpu0.dcache.ReadReq_miss_latency::total  94105064000                       # number of ReadReq miss cycles
system.cpu0.dcache.WriteReq_miss_latency::switch_cpus0.data 578348565073                       # number of WriteReq miss cycles
system.cpu0.dcache.WriteReq_miss_latency::total 578348565073                       # number of WriteReq miss cycles
system.cpu0.dcache.LoadLockedReq_miss_latency::switch_cpus0.data   1739601000                       # number of LoadLockedReq miss cycles
system.cpu0.dcache.LoadLockedReq_miss_latency::total   1739601000                       # number of LoadLockedReq miss cycles
system.cpu0.dcache.StoreCondReq_miss_latency::switch_cpus0.data    352517500                       # number of StoreCondReq miss cycles
system.cpu0.dcache.StoreCondReq_miss_latency::total    352517500                       # number of StoreCondReq miss cycles
system.cpu0.dcache.StoreCondFailReq_miss_latency::switch_cpus0.data       222500                       # number of StoreCondFailReq miss cycles
system.cpu0.dcache.StoreCondFailReq_miss_latency::total       222500                       # number of StoreCondFailReq miss cycles
system.cpu0.dcache.demand_miss_latency::switch_cpus0.data 672453629073                       # number of demand (read+write) miss cycles
system.cpu0.dcache.demand_miss_latency::total 672453629073                       # number of demand (read+write) miss cycles
system.cpu0.dcache.overall_miss_latency::switch_cpus0.data 672453629073                       # number of overall miss cycles
system.cpu0.dcache.overall_miss_latency::total 672453629073                       # number of overall miss cycles
system.cpu0.dcache.ReadReq_accesses::switch_cpus0.data    102598166                       # number of ReadReq accesses(hits+misses)
system.cpu0.dcache.ReadReq_accesses::total    102598166                       # number of ReadReq accesses(hits+misses)
system.cpu0.dcache.WriteReq_accesses::switch_cpus0.data     80252489                       # number of WriteReq accesses(hits+misses)
system.cpu0.dcache.WriteReq_accesses::total     80252489                       # number of WriteReq accesses(hits+misses)
system.cpu0.dcache.SoftPFReq_accesses::switch_cpus0.data      2360997                       # number of SoftPFReq accesses(hits+misses)
system.cpu0.dcache.SoftPFReq_accesses::total      2360997                       # number of SoftPFReq accesses(hits+misses)
system.cpu0.dcache.LoadLockedReq_accesses::switch_cpus0.data      1926721                       # number of LoadLockedReq accesses(hits+misses)
system.cpu0.dcache.LoadLockedReq_accesses::total      1926721                       # number of LoadLockedReq accesses(hits+misses)
system.cpu0.dcache.StoreCondReq_accesses::switch_cpus0.data      1829906                       # number of StoreCondReq accesses(hits+misses)
system.cpu0.dcache.StoreCondReq_accesses::total      1829906                       # number of StoreCondReq accesses(hits+misses)
system.cpu0.dcache.demand_accesses::switch_cpus0.data    182850655                       # number of demand (read+write) accesses
system.cpu0.dcache.demand_accesses::total    182850655                       # number of demand (read+write) accesses
system.cpu0.dcache.overall_accesses::switch_cpus0.data    185211652                       # number of overall (read+write) accesses
system.cpu0.dcache.overall_accesses::total    185211652                       # number of overall (read+write) accesses
system.cpu0.dcache.ReadReq_miss_rate::switch_cpus0.data     0.067594                       # miss rate for ReadReq accesses
system.cpu0.dcache.ReadReq_miss_rate::total     0.067594                       # miss rate for ReadReq accesses
system.cpu0.dcache.WriteReq_miss_rate::switch_cpus0.data     0.318955                       # miss rate for WriteReq accesses
system.cpu0.dcache.WriteReq_miss_rate::total     0.318955                       # miss rate for WriteReq accesses
system.cpu0.dcache.SoftPFReq_miss_rate::switch_cpus0.data     0.497924                       # miss rate for SoftPFReq accesses
system.cpu0.dcache.SoftPFReq_miss_rate::total     0.497924                       # miss rate for SoftPFReq accesses
system.cpu0.dcache.LoadLockedReq_miss_rate::switch_cpus0.data     0.063328                       # miss rate for LoadLockedReq accesses
system.cpu0.dcache.LoadLockedReq_miss_rate::total     0.063328                       # miss rate for LoadLockedReq accesses
system.cpu0.dcache.StoreCondReq_miss_rate::switch_cpus0.data     0.040082                       # miss rate for StoreCondReq accesses
system.cpu0.dcache.StoreCondReq_miss_rate::total     0.040082                       # miss rate for StoreCondReq accesses
system.cpu0.dcache.demand_miss_rate::switch_cpus0.data     0.177915                       # miss rate for demand accesses
system.cpu0.dcache.demand_miss_rate::total     0.177915                       # miss rate for demand accesses
system.cpu0.dcache.overall_miss_rate::switch_cpus0.data     0.181995                       # miss rate for overall accesses
system.cpu0.dcache.overall_miss_rate::total     0.181995                       # miss rate for overall accesses
system.cpu0.dcache.ReadReq_avg_miss_latency::switch_cpus0.data 13569.556457                       # average ReadReq miss latency
system.cpu0.dcache.ReadReq_avg_miss_latency::total 13569.556457                       # average ReadReq miss latency
system.cpu0.dcache.WriteReq_avg_miss_latency::switch_cpus0.data 22594.452157                       # average WriteReq miss latency
system.cpu0.dcache.WriteReq_avg_miss_latency::total 22594.452157                       # average WriteReq miss latency
system.cpu0.dcache.LoadLockedReq_avg_miss_latency::switch_cpus0.data 14257.154799                       # average LoadLockedReq miss latency
system.cpu0.dcache.LoadLockedReq_avg_miss_latency::total 14257.154799                       # average LoadLockedReq miss latency
system.cpu0.dcache.StoreCondReq_avg_miss_latency::switch_cpus0.data  4806.161125                       # average StoreCondReq miss latency
system.cpu0.dcache.StoreCondReq_avg_miss_latency::total  4806.161125                       # average StoreCondReq miss latency
system.cpu0.dcache.StoreCondFailReq_avg_miss_latency::switch_cpus0.data          inf                       # average StoreCondFailReq miss latency
[...]
system.switch_cpus3.commit.op_class_0::SimdCmp            0      0.00%     61.98% # Class of committed instruction
system.switch_cpus3.commit.op_class_0::SimdCvt            0      0.00%     61.98% # Class of committed instruction
system.switch_cpus3.commit.op_class_0::SimdMisc            0      0.00%     61.98% # Class of committed instruction
system.switch_cpus3.commit.op_class_0::SimdMult            0      0.00%     61.98% # Class of committed instruction
system.switch_cpus3.commit.op_class_0::SimdMultAcc            0      0.00%     61.98% # Class of committed instruction
system.switch_cpus3.commit.op_class_0::SimdShift            0      0.00%     61.98% # Class of committed instruction
system.switch_cpus3.commit.op_class_0::SimdShiftAcc            0      0.00%     61.98% # Class of committed instruction
system.switch_cpus3.commit.op_class_0::SimdSqrt            0      0.00%     61.98% # Class of committed instruction
system.switch_cpus3.commit.op_class_0::SimdFloatAdd            0      0.00%     61.98% # Class of committed instruction
system.switch_cpus3.commit.op_class_0::SimdFloatAlu            0      0.00%     61.98% # Class of committed instruction
system.switch_cpus3.commit.op_class_0::SimdFloatCmp           27      0.00%     61.98% # Class of committed instruction
system.switch_cpus3.commit.op_class_0::SimdFloatCvt           54      0.00%     61.98% # Class of committed instruction
system.switch_cpus3.commit.op_class_0::SimdFloatDiv           27      0.00%     61.98% # Class of committed instruction
system.switch_cpus3.commit.op_class_0::SimdFloatMisc        20698      0.01%     61.99% # Class of committed instruction
system.switch_cpus3.commit.op_class_0::SimdFloatMult            0      0.00%     61.99% # Class of committed instruction
system.switch_cpus3.commit.op_class_0::SimdFloatMultAcc            0      0.00%     61.99% # Class of committed instruction
system.switch_cpus3.commit.op_class_0::SimdFloatSqrt            0      0.00%     61.99% # Class of committed instruction
system.switch_cpus3.commit.op_class_0::MemRead     62490077     19.84%     81.83% # Class of committed instruction
system.switch_cpus3.commit.op_class_0::MemWrite     57236888     18.17%    100.00% # Class of committed instruction
system.switch_cpus3.commit.op_class_0::IprAccess            0      0.00%    100.00% # Class of committed instruction
system.switch_cpus3.commit.op_class_0::InstPrefetch            0      0.00%    100.00% # Class of committed instruction
system.switch_cpus3.commit.op_class_0::total    314967343                       # Class of committed instruction
system.switch_cpus3.commit.bw_lim_events     12038122                       # number cycles where commit BW limit reached
system.switch_cpus3.rob.rob_reads           741514334                       # The number of ROB reads
system.switch_cpus3.rob.rob_writes          834259433                       # The number of ROB writes
system.switch_cpus3.timesIdled                2034452                       # Number of times that the entire CPU went into an idle state and unscheduled itself
system.switch_cpus3.idleCycles               15100578                       # Total number of cycles that the CPU has spent unscheduled due to idling
system.switch_cpus3.quiesceCycles           621438243                       # Total number of cycles that CPU has spent quiesced or waiting for an interrupt
system.switch_cpus3.committedInsts          248172429                       # Number of Instructions Simulated
system.switch_cpus3.committedOps            313893498                       # Number of Ops (including micro ops) Simulated
system.switch_cpus3.cpi                      1.539938                       # CPI: Cycles Per Instruction
system.switch_cpus3.cpi_total                1.539938                       # CPI: Total CPI of All Threads
system.switch_cpus3.ipc                      0.649377                       # IPC: Instructions Per Cycle
system.switch_cpus3.ipc_total                0.649377                       # IPC: Total IPC of All Threads
system.switch_cpus3.int_regfile_reads       399481466                       # number of integer regfile reads
system.switch_cpus3.int_regfile_writes      222856140                       # number of integer regfile writes
system.switch_cpus3.fp_regfile_reads           171540                       # number of floating regfile reads
system.switch_cpus3.fp_regfile_writes           59799                       # number of floating regfile writes
system.switch_cpus3.cc_regfile_reads       1298575292                       # number of cc regfile reads
system.switch_cpus3.cc_regfile_writes       141162751                       # number of cc regfile writes
system.switch_cpus3.misc_regfile_reads      764406855                       # number of misc regfile reads
system.switch_cpus3.misc_regfile_writes       5160949                       # number of misc regfile writes
system.tol2bus.snoop_filter.tot_requests     59952236                       # Total number of requests made to the snoop filter.
system.tol2bus.snoop_filter.hit_single_requests     29086079                       # Number of requests hitting in the snoop filter with a single holder of the requested data.
system.tol2bus.snoop_filter.hit_multi_requests      8864975                       # Number of requests hitting in the snoop filter with multiple (>1) holders of the requested data.
system.tol2bus.snoop_filter.tot_snoops          47458                       # Total number of snoops made to the snoop filter.
system.tol2bus.snoop_filter.hit_single_snoops        45944                       # Number of snoops hitting in the snoop filter with a single holder of the requested data.
system.tol2bus.snoop_filter.hit_multi_snoops         1514                       # Number of snoops hitting in the snoop filter with multiple (>1) holders of the requested data.
system.tol2bus.pwrStateResidencyTicks::UNDEFINED 3738195183000                       # Cumulative time (in ticks) in various power states
system.tol2bus.trans_dist::ReadReq            5077730                       # Transaction distribution
system.tol2bus.trans_dist::ReadResp          30272339                       # Transaction distribution
system.tol2bus.trans_dist::WriteReq              8645                       # Transaction distribution
system.tol2bus.trans_dist::WriteResp             8645                       # Transaction distribution
system.tol2bus.trans_dist::WritebackDirty      7171003                       # Transaction distribution
system.tol2bus.trans_dist::WritebackClean     17533972                       # Transaction distribution
system.tol2bus.trans_dist::CleanEvict         4574737                       # Transaction distribution
system.tol2bus.trans_dist::UpgradeReq          448978                       # Transaction distribution
system.tol2bus.trans_dist::SCUpgradeReq        177430                       # Transaction distribution
system.tol2bus.trans_dist::UpgradeResp         626408                       # Transaction distribution
system.tol2bus.trans_dist::SCUpgradeFailReq           49                       # Transaction distribution
system.tol2bus.trans_dist::UpgradeFailResp           49                       # Transaction distribution
system.tol2bus.trans_dist::ReadExReq          3667030                       # Transaction distribution
system.tol2bus.trans_dist::ReadExResp         3667030                       # Transaction distribution
system.tol2bus.trans_dist::ReadCleanReq      17535115                       # Transaction distribution
system.tol2bus.trans_dist::ReadSharedReq      7659514                       # Transaction distribution
system.tol2bus.trans_dist::InvalidateReq         3130                       # Transaction distribution
system.tol2bus.pkt_count_system.cpu0.icache.mem_side::system.l2.cpu_side     24348179                       # Packet count per connected master and slave (bytes)
system.tol2bus.pkt_count_system.cpu0.dcache.mem_side::system.l2.cpu_side     16855796                       # Packet count per connected master and slave (bytes)
system.tol2bus.pkt_count_system.cpu0.itb.walker.dma::system.l2.cpu_side       542055                       # Packet count per connected master and slave (bytes)
system.tol2bus.pkt_count_system.cpu0.dtb.walker.dma::system.l2.cpu_side      1972142                       # Packet count per connected master and slave (bytes)
system.tol2bus.pkt_count_system.cpu1.icache.mem_side::system.l2.cpu_side      5770585                       # Packet count per connected master and slave (bytes)
system.tol2bus.pkt_count_system.cpu1.dcache.mem_side::system.l2.cpu_side       826952                       # Packet count per connected master and slave (bytes)
system.tol2bus.pkt_count_system.cpu1.itb.walker.dma::system.l2.cpu_side      2460740                       # Packet count per connected master and slave (bytes)
system.tol2bus.pkt_count_system.cpu1.dtb.walker.dma::system.l2.cpu_side       553204                       # Packet count per connected master and slave (bytes)
system.tol2bus.pkt_count_system.cpu2.icache.mem_side::system.l2.cpu_side      6977989                       # Packet count per connected master and slave (bytes)
system.tol2bus.pkt_count_system.cpu2.dcache.mem_side::system.l2.cpu_side      4849297                       # Packet count per connected master and slave (bytes)
system.tol2bus.pkt_count_system.cpu2.itb.walker.dma::system.l2.cpu_side       228492                       # Packet count per connected master and slave (bytes)
system.tol2bus.pkt_count_system.cpu2.dtb.walker.dma::system.l2.cpu_side       612400                       # Packet count per connected master and slave (bytes)
system.tol2bus.pkt_count_system.cpu3.icache.mem_side::system.l2.cpu_side     15506151                       # Packet count per connected master and slave (bytes)
system.tol2bus.pkt_count_system.cpu3.dcache.mem_side::system.l2.cpu_side     10745557                       # Packet count per connected master and slave (bytes)
system.tol2bus.pkt_count_system.cpu3.itb.walker.dma::system.l2.cpu_side       394807                       # Packet count per connected master and slave (bytes)
system.tol2bus.pkt_count_system.cpu3.dtb.walker.dma::system.l2.cpu_side      1269205                       # Packet count per connected master and slave (bytes)
system.tol2bus.pkt_count::total              93913551                       # Packet count per connected master and slave (bytes)
system.tol2bus.pkt_size_system.cpu0.icache.mem_side::system.l2.cpu_side   1038827328                       # Cumulative packet size per connected master and slave (bytes)
system.tol2bus.pkt_size_system.cpu0.dcache.mem_side::system.l2.cpu_side    546803314                       # Cumulative packet size per connected master and slave (bytes)
system.tol2bus.pkt_size_system.cpu0.itb.walker.dma::system.l2.cpu_side       527204                       # Cumulative packet size per connected master and slave (bytes)
system.tol2bus.pkt_size_system.cpu0.dtb.walker.dma::system.l2.cpu_side      2446708                       # Cumulative packet size per connected master and slave (bytes)
system.tol2bus.pkt_size_system.cpu1.icache.mem_side::system.l2.cpu_side    246210944                       # Cumulative packet size per connected master and slave (bytes)
system.tol2bus.pkt_size_system.cpu1.dcache.mem_side::system.l2.cpu_side     32066340                       # Cumulative packet size per connected master and slave (bytes)
system.tol2bus.pkt_size_system.cpu1.itb.walker.dma::system.l2.cpu_side      4908972                       # Cumulative packet size per connected master and slave (bytes)
system.tol2bus.pkt_size_system.cpu1.dtb.walker.dma::system.l2.cpu_side      1085648                       # Cumulative packet size per connected master and slave (bytes)
system.tol2bus.pkt_size_system.cpu2.icache.mem_side::system.l2.cpu_side    297724544                       # Cumulative packet size per connected master and slave (bytes)
system.tol2bus.pkt_size_system.cpu2.dcache.mem_side::system.l2.cpu_side    152321979                       # Cumulative packet size per connected master and slave (bytes)
system.tol2bus.pkt_size_system.cpu2.itb.walker.dma::system.l2.cpu_side       216424                       # Cumulative packet size per connected master and slave (bytes)
system.tol2bus.pkt_size_system.cpu2.dtb.walker.dma::system.l2.cpu_side       707752                       # Cumulative packet size per connected master and slave (bytes)
system.tol2bus.pkt_size_system.cpu3.icache.mem_side::system.l2.cpu_side    661575680                       # Cumulative packet size per connected master and slave (bytes)
system.tol2bus.pkt_size_system.cpu3.dcache.mem_side::system.l2.cpu_side    345069495                       # Cumulative packet size per connected master and slave (bytes)
system.tol2bus.pkt_size_system.cpu3.itb.walker.dma::system.l2.cpu_side       412236                       # Cumulative packet size per connected master and slave (bytes)
system.tol2bus.pkt_size_system.cpu3.dtb.walker.dma::system.l2.cpu_side      1552112                       # Cumulative packet size per connected master and slave (bytes)
system.tol2bus.pkt_size::total             3332456680                       # Cumulative packet size per connected master and slave (bytes)
system.tol2bus.snoops                         4518635                       # Total snoops (count)
system.tol2bus.snoopTraffic                 116172500                       # Total snoop traffic (bytes)
system.tol2bus.snoop_fanout::samples         35638519                       # Request fanout histogram
system.tol2bus.snoop_fanout::mean            0.346571                       # Request fanout histogram
system.tol2bus.snoop_fanout::stdev           0.646084                       # Request fanout histogram
system.tol2bus.snoop_fanout::underflows             0      0.00%      0.00% # Request fanout histogram
system.tol2bus.snoop_fanout::0               26046258     73.08%     73.08% # Request fanout histogram
system.tol2bus.snoop_fanout::1                7365196     20.67%     93.75% # Request fanout histogram
system.tol2bus.snoop_fanout::2                1778714      4.99%     98.74% # Request fanout histogram
system.tol2bus.snoop_fanout::3                 388908      1.09%     99.83% # Request fanout histogram
system.tol2bus.snoop_fanout::4                  38941      0.11%     99.94% # Request fanout histogram
system.tol2bus.snoop_fanout::5                  17369      0.05%     99.99% # Request fanout histogram
system.tol2bus.snoop_fanout::6                   2617      0.01%    100.00% # Request fanout histogram
system.tol2bus.snoop_fanout::7                    516      0.00%    100.00% # Request fanout histogram
system.tol2bus.snoop_fanout::8                      0      0.00%    100.00% # Request fanout histogram
system.tol2bus.snoop_fanout::overflows              0      0.00%    100.00% # Request fanout histogram
system.tol2bus.snoop_fanout::min_value              0                       # Request fanout histogram
system.tol2bus.snoop_fanout::max_value              7                       # Request fanout histogram
system.tol2bus.snoop_fanout::total           35638519                       # Request fanout histogram
system.tol2bus.reqLayer0.occupancy        55392790270                       # Layer occupancy (ticks)
system.tol2bus.reqLayer0.utilization             11.0                       # Layer utilization (%)
system.tol2bus.snoopLayer0.occupancy           620904                       # Layer occupancy (ticks)
system.tol2bus.snoopLayer0.utilization            0.0                       # Layer utilization (%)
system.tol2bus.respLayer0.occupancy       12194780620                       # Layer occupancy (ticks)
system.tol2bus.respLayer0.utilization             2.4                       # Layer utilization (%)
system.tol2bus.respLayer1.occupancy        8712069824                       # Layer occupancy (ticks)
system.tol2bus.respLayer1.utilization             1.7                       # Layer utilization (%)
system.tol2bus.respLayer2.occupancy         411230993                       # Layer occupancy (ticks)
system.tol2bus.respLayer2.utilization             0.1                       # Layer utilization (%)
system.tol2bus.respLayer3.occupancy        1366020561                       # Layer occupancy (ticks)
system.tol2bus.respLayer3.utilization             0.3                       # Layer utilization (%)
system.tol2bus.respLayer4.occupancy        2899727088                       # Layer occupancy (ticks)
system.tol2bus.respLayer4.utilization             0.6                       # Layer utilization (%)
system.tol2bus.respLayer5.occupancy         420910377                       # Layer occupancy (ticks)
system.tol2bus.respLayer5.utilization             0.1                       # Layer utilization (%)
system.tol2bus.respLayer6.occupancy        1243065525                       # Layer occupancy (ticks)
system.tol2bus.respLayer6.utilization             0.2                       # Layer utilization (%)
system.tol2bus.respLayer7.occupancy         283994414                       # Layer occupancy (ticks)
system.tol2bus.respLayer7.utilization             0.1                       # Layer utilization (%)
system.tol2bus.respLayer8.occupancy        3498616044                       # Layer occupancy (ticks)
system.tol2bus.respLayer8.utilization             0.7                       # Layer utilization (%)
system.tol2bus.respLayer9.occupancy        2606868646                       # Layer occupancy (ticks)
system.tol2bus.respLayer9.utilization             0.5                       # Layer utilization (%)
system.tol2bus.respLayer10.occupancy        174858510                       # Layer occupancy (ticks)
system.tol2bus.respLayer10.utilization            0.0                       # Layer utilization (%)
system.tol2bus.respLayer11.occupancy        437610060                       # Layer occupancy (ticks)
system.tol2bus.respLayer11.utilization            0.1                       # Layer utilization (%)
system.tol2bus.respLayer12.occupancy       7768168561                       # Layer occupancy (ticks)
system.tol2bus.respLayer12.utilization            1.5                       # Layer utilization (%)
system.tol2bus.respLayer13.occupancy       5624992602                       # Layer occupancy (ticks)
system.tol2bus.respLayer13.utilization            1.1                       # Layer utilization (%)
system.tol2bus.respLayer14.occupancy        292658615                       # Layer occupancy (ticks)
system.tol2bus.respLayer14.utilization            0.1                       # Layer utilization (%)
system.tol2bus.respLayer15.occupancy        885804941                       # Layer occupancy (ticks)
system.tol2bus.respLayer15.utilization            0.2                       # Layer utilization (%)
system.switch_cpus0.kern.inst.arm                   0                       # number of arm instructions executed
system.switch_cpus0.kern.inst.quiesce               0                       # number of quiesce instructions executed
system.switch_cpus1.kern.inst.arm                   0                       # number of arm instructions executed
system.switch_cpus1.kern.inst.quiesce               0                       # number of quiesce instructions executed
system.switch_cpus2.kern.inst.arm                   0                       # number of arm instructions executed
system.switch_cpus2.kern.inst.quiesce               0                       # number of quiesce instructions executed
system.switch_cpus3.kern.inst.arm                   0                       # number of arm instructions executed
system.switch_cpus3.kern.inst.quiesce               0                       # number of quiesce instructions executed

---------- End Simulation Statistics   ----------
