
---------- Begin Simulation Statistics ----------
sim_seconds                                  0.501843                       # Number of seconds simulated
sim_ticks                                501842998500                       # Number of ticks simulated
final_tick                               3738257516000                       # Number of ticks from beginning of simulation (restored from checkpoints and never reset)
sim_freq                                 1000000000000                       # Frequency of simulated ticks
host_inst_rate                                 151174                       # Simulator instruction rate (inst/s)
host_op_rate                                   188975                       # Simulator op (including micro ops) rate (op/s)
host_tick_rate                               34736999                       # Simulator tick rate (ticks/s)
host_mem_usage                                2475896                       # Number of bytes of host memory used
host_seconds                                 14446.93                       # Real time elapsed on the host
sim_insts                                  2184001880                       # Number of instructions simulated
sim_ops                                    2730115217                       # Number of ops (including micro ops) simulated
system.voltage_domain.voltage                       1                       # Voltage in Volts
system.clk_domain.clock                          1000                       # Clock period in ticks
system.mem_ctrls.pwrStateResidencyTicks::UNDEFINED 3738257516000                       # Cumulative time (in ticks) in various power states
system.mem_ctrls.bytes_read::switch_cpus0.dtb.walker        42048                       # Number of bytes read from this memory
system.mem_ctrls.bytes_read::switch_cpus0.itb.walker        20736                       # Number of bytes read from this memory
system.mem_ctrls.bytes_read::switch_cpus0.inst      3047808                       # Number of bytes read from this memory
system.mem_ctrls.bytes_read::switch_cpus0.data     22129408                       # Number of bytes read from this memory
system.mem_ctrls.bytes_read::switch_cpus1.dtb.walker        36608                       # Number of bytes read from this memory
system.mem_ctrls.bytes_read::switch_cpus1.itb.walker         1152                       # Number of bytes read from this memory
system.mem_ctrls.bytes_read::switch_cpus1.inst       669888                       # Number of bytes read from this memory
system.mem_ctrls.bytes_read::switch_cpus1.data      8893184                       # Number of bytes read from this memory
system.mem_ctrls.bytes_read::switch_cpus2.dtb.walker         8512                       # Number of bytes read from this memory
system.mem_ctrls.bytes_read::switch_cpus2.itb.walker         3776                       # Number of bytes read from this memory
system.mem_ctrls.bytes_read::switch_cpus2.inst      1915840                       # Number of bytes read from this memory
system.mem_ctrls.bytes_read::switch_cpus2.data      9599104                       # Number of bytes read from this memory
system.mem_ctrls.bytes_read::switch_cpus3.dtb.walker        17344                       # Number of bytes read from this memory
system.mem_ctrls.bytes_read::switch_cpus3.itb.walker         7168                       # Number of bytes read from this memory
system.mem_ctrls.bytes_read::switch_cpus3.inst      2963712                       # Number of bytes read from this memory
system.mem_ctrls.bytes_read::switch_cpus3.data     23646208                       # Number of bytes read from this memory
system.mem_ctrls.bytes_read::total           73002496                       # Number of bytes read from this memory
system.mem_ctrls.bytes_inst_read::switch_cpus0.inst      3047808                       # Number of instructions bytes read from this memory
system.mem_ctrls.bytes_inst_read::switch_cpus1.inst       669888                       # Number of instructions bytes read from this memory
system.mem_ctrls.bytes_inst_read::switch_cpus2.inst      1915840                       # Number of instructions bytes read from this memory
system.mem_ctrls.bytes_inst_read::switch_cpus3.inst      2963712                       # Number of instructions bytes read from this memory
system.mem_ctrls.bytes_inst_read::total       8597248                       # Number of instructions bytes read from this memory
system.mem_ctrls.bytes_written::writebacks     50856320                       # Number of bytes written to this memory
system.mem_ctrls.bytes_written::total        50856320                       # Number of bytes written to this memory
system.mem_ctrls.num_reads::switch_cpus0.dtb.walker          657                       # Number of read requests responded to by this memory
system.mem_ctrls.num_reads::switch_cpus0.itb.walker          324                       # Number of read requests responded to by this memory
system.mem_ctrls.num_reads::switch_cpus0.inst        47622                       # Number of read requests responded to by this memory
system.mem_ctrls.num_reads::switch_cpus0.data       345772                       # Number of read requests responded to by this memory
system.mem_ctrls.num_reads::switch_cpus1.dtb.walker          572                       # Number of read requests responded to by this memory
system.mem_ctrls.num_reads::switch_cpus1.itb.walker           18                       # Number of read requests responded to by this memory
system.mem_ctrls.num_reads::switch_cpus1.inst        10467                       # Number of read requests responded to by this memory
system.mem_ctrls.num_reads::switch_cpus1.data       138956                       # Number of read requests responded to by this memory
system.mem_ctrls.num_reads::switch_cpus2.dtb.walker          133                       # Number of read requests responded to by this memory
system.mem_ctrls.num_reads::switch_cpus2.itb.walker           59                       # Number of read requests responded to by this memory
system.mem_ctrls.num_reads::switch_cpus2.inst        29935                       # Number of read requests responded to by this memory
system.mem_ctrls.num_reads::switch_cpus2.data       149986                       # Number of read requests responded to by this memory
system.mem_ctrls.num_reads::switch_cpus3.dtb.walker          271                       # Number of read requests responded to by this memory
system.mem_ctrls.num_reads::switch_cpus3.itb.walker          112                       # Number of read requests responded to by this memory
system.mem_ctrls.num_reads::switch_cpus3.inst        46308                       # Number of read requests responded to by this memory
system.mem_ctrls.num_reads::switch_cpus3.data       369472                       # Number of read requests responded to by this memory
system.mem_ctrls.num_reads::total             1140664                       # Number of read requests responded to by this memory
system.mem_ctrls.num_writes::writebacks        794630                       # Number of write requests responded to by this memory
system.mem_ctrls.num_writes::total             794630                       # Number of write requests responded to by this memory
system.mem_ctrls.bw_read::switch_cpus0.dtb.walker        83787                       # Total read bandwidth from this memory (bytes/s)
system.mem_ctrls.bw_read::switch_cpus0.itb.walker        41320                       # Total read bandwidth from this memory (bytes/s)
system.mem_ctrls.bw_read::switch_cpus0.inst      6073230                       # Total read bandwidth from this memory (bytes/s)
system.mem_ctrls.bw_read::switch_cpus0.data     44096277                       # Total read bandwidth from this memory (bytes/s)
system.mem_ctrls.bw_read::switch_cpus1.dtb.walker        72947                       # Total read bandwidth from this memory (bytes/s)
system.mem_ctrls.bw_read::switch_cpus1.itb.walker         2296                       # Total read bandwidth from this memory (bytes/s)
system.mem_ctrls.bw_read::switch_cpus1.inst      1334856                       # Total read bandwidth from this memory (bytes/s)
system.mem_ctrls.bw_read::switch_cpus1.data     17721048                       # Total read bandwidth from this memory (bytes/s)
system.mem_ctrls.bw_read::switch_cpus2.dtb.walker        16961                       # Total read bandwidth from this memory (bytes/s)
system.mem_ctrls.bw_read::switch_cpus2.itb.walker         7524                       # Total read bandwidth from this memory (bytes/s)
system.mem_ctrls.bw_read::switch_cpus2.inst      3817608                       # Total read bandwidth from this memory (bytes/s)
system.mem_ctrls.bw_read::switch_cpus2.data     19127703                       # Total read bandwidth from this memory (bytes/s)
system.mem_ctrls.bw_read::switch_cpus3.dtb.walker        34561                       # Total read bandwidth from this memory (bytes/s)
system.mem_ctrls.bw_read::switch_cpus3.itb.walker        14283                       # Total read bandwidth from this memory (bytes/s)
system.mem_ctrls.bw_read::switch_cpus3.inst      5905656                       # Total read bandwidth from this memory (bytes/s)
system.mem_ctrls.bw_read::switch_cpus3.data     47118736                       # Total read bandwidth from this memory (bytes/s)
system.mem_ctrls.bw_read::total             145468794                       # Total read bandwidth from this memory (bytes/s)
system.mem_ctrls.bw_inst_read::switch_cpus0.inst      6073230                       # Instruction read bandwidth from this memory (bytes/s)
system.mem_ctrls.bw_inst_read::switch_cpus1.inst      1334856                       # Instruction read bandwidth from this memory (bytes/s)
system.mem_ctrls.bw_inst_read::switch_cpus2.inst      3817608                       # Instruction read bandwidth from this memory (bytes/s)
system.mem_ctrls.bw_inst_read::switch_cpus3.inst      5905656                       # Instruction read bandwidth from this memory (bytes/s)
system.mem_ctrls.bw_inst_read::total         17131350                       # Instruction read bandwidth from this memory (bytes/s)
system.mem_ctrls.bw_write::writebacks       101339104                       # Write bandwidth from this memory (bytes/s)
system.mem_ctrls.bw_write::total            101339104                       # Write bandwidth from this memory (bytes/s)
system.mem_ctrls.bw_total::writebacks       101339104                       # Total bandwidth to/from this memory (bytes/s)
system.mem_ctrls.bw_total::switch_cpus0.dtb.walker        83787                       # Total bandwidth to/from this memory (bytes/s)
system.mem_ctrls.bw_total::switch_cpus0.itb.walker        41320                       # Total bandwidth to/from this memory (bytes/s)
system.mem_ctrls.bw_total::switch_cpus0.inst      6073230                       # Total bandwidth to/from this memory (bytes/s)
system.mem_ctrls.bw_total::switch_cpus0.data     44096277                       # Total bandwidth to/from this memory (bytes/s)
system.mem_ctrls.bw_total::switch_cpus1.dtb.walker        72947                       # Total bandwidth to/from this memory (bytes/s)
system.mem_ctrls.bw_total::switch_cpus1.itb.walker         2296                       # Total bandwidth to/from this memory (bytes/s)
system.mem_ctrls.bw_total::switch_cpus1.inst      1334856                       # Total bandwidth to/from this memory (bytes/s)
system.mem_ctrls.bw_total::switch_cpus1.data     17721048                       # Total bandwidth to/from this memory (bytes/s)
system.mem_ctrls.bw_total::switch_cpus2.dtb.walker        16961                       # Total bandwidth to/from this memory (bytes/s)
system.mem_ctrls.bw_total::switch_cpus2.itb.walker         7524                       # Total bandwidth to/from this memory (bytes/s)
system.mem_ctrls.bw_total::switch_cpus2.inst      3817608                       # Total bandwidth to/from this memory (bytes/s)
system.mem_ctrls.bw_total::switch_cpus2.data     19127703                       # Total bandwidth to/from this memory (bytes/s)
system.mem_ctrls.bw_total::switch_cpus3.dtb.walker        34561                       # Total bandwidth to/from this memory (bytes/s)
system.mem_ctrls.bw_total::switch_cpus3.itb.walker        14283                       # Total bandwidth to/from this memory (bytes/s)
system.mem_ctrls.bw_total::switch_cpus3.inst      5905656                       # Total bandwidth to/from this memory (bytes/s)
system.mem_ctrls.bw_total::switch_cpus3.data     47118736                       # Total bandwidth to/from this memory (bytes/s)
system.mem_ctrls.bw_total::total            246807899                       # Total bandwidth to/from this memory (bytes/s)
system.mem_ctrls.readReqs                     1140664                       # Number of read requests accepted
system.mem_ctrls.writeReqs                     794630                       # Number of write requests accepted
system.mem_ctrls.readBursts                   1140664                       # Number of DRAM read bursts, including those serviced by the write queue
system.mem_ctrls.writeBursts                   794630                       # Number of DRAM write bursts, including those merged in the write queue
system.mem_ctrls.bytesReadDRAM               72716224                       # Total number of bytes read from DRAM
system.mem_ctrls.bytesReadWrQ                  286272                       # Total number of bytes read from write queue
system.mem_ctrls.bytesWritten                50854528                       # Total number of bytes written to DRAM
system.mem_ctrls.bytesReadSys                73002496                       # Total read bytes from the system interface side
system.mem_ctrls.bytesWrittenSys             50856320                       # Total written bytes from the system interface side
system.mem_ctrls.servicedByWrQ                   4473                       # Number of DRAM read bursts serviced by the write queue
system.mem_ctrls.mergedWrBursts                     0                       # Number of DRAM write bursts merged with an existing one
system.mem_ctrls.neitherReadNorWriteReqs            0                       # Number of requests that are neither read nor write
system.mem_ctrls.perBankRdBursts::0             46830                       # Per bank write bursts
system.mem_ctrls.perBankRdBursts::1             60206                       # Per bank write bursts
system.mem_ctrls.perBankRdBursts::2             61314                       # Per bank write bursts
system.mem_ctrls.perBankRdBursts::3             75609                       # Per bank write bursts
system.mem_ctrls.perBankRdBursts::4             68248                       # Per bank write bursts
system.mem_ctrls.perBankRdBursts::5             50051                       # Per bank write bursts
system.mem_ctrls.perBankRdBursts::6             95067                       # Per bank write bursts
system.mem_ctrls.perBankRdBursts::7            124197                       # Per bank write bursts
system.mem_ctrls.perBankRdBursts::8             86948                       # Per bank write bursts
system.mem_ctrls.perBankRdBursts::9             99908                       # Per bank write bursts
system.mem_ctrls.perBankRdBursts::10            88138                       # Per bank write bursts
system.mem_ctrls.perBankRdBursts::11            59685                       # Per bank write bursts
system.mem_ctrls.perBankRdBursts::12            53946                       # Per bank write bursts
system.mem_ctrls.perBankRdBursts::13            53309                       # Per bank write bursts
system.mem_ctrls.perBankRdBursts::14            62373                       # Per bank write bursts
system.mem_ctrls.perBankRdBursts::15            50362                       # Per bank write bursts
system.mem_ctrls.perBankWrBursts::0             36014                       # Per bank write bursts
system.mem_ctrls.perBankWrBursts::1             41653                       # Per bank write bursts
system.mem_ctrls.perBankWrBursts::2             43534                       # Per bank write bursts
system.mem_ctrls.perBankWrBursts::3             52418                       # Per bank write bursts
system.mem_ctrls.perBankWrBursts::4             47537                       # Per bank write bursts
system.mem_ctrls.perBankWrBursts::5             36901                       # Per bank write bursts
system.mem_ctrls.perBankWrBursts::6             65568                       # Per bank write bursts
system.mem_ctrls.perBankWrBursts::7             72214                       # Per bank write bursts
system.mem_ctrls.perBankWrBursts::8             62040                       # Per bank write bursts
system.mem_ctrls.perBankWrBursts::9             53322                       # Per bank write bursts
system.mem_ctrls.perBankWrBursts::10            63765                       # Per bank write bursts
system.mem_ctrls.perBankWrBursts::11            44418                       # Per bank write bursts
system.mem_ctrls.perBankWrBursts::12            43917                       # Per bank write bursts
system.mem_ctrls.perBankWrBursts::13            43388                       # Per bank write bursts
system.mem_ctrls.perBankWrBursts::14            49324                       # Per bank write bursts
system.mem_ctrls.perBankWrBursts::15            38589                       # Per bank write bursts
system.mem_ctrls.numRdRetry                         0                       # Number of times read queue was full causing retry
system.mem_ctrls.numWrRetry                        35                       # Number of times write queue was full causing retry
system.mem_ctrls.totGap                  501843032500                       # Total gap between requests
system.mem_ctrls.readPktSize::0                     0                       # Read request sizes (log2)
system.mem_ctrls.readPktSize::1                     0                       # Read request sizes (log2)
system.mem_ctrls.readPktSize::2                     0                       # Read request sizes (log2)
system.mem_ctrls.readPktSize::3                     0                       # Read request sizes (log2)
system.mem_ctrls.readPktSize::4                     0                       # Read request sizes (log2)
system.mem_ctrls.readPktSize::5                     0                       # Read request sizes (log2)
system.mem_ctrls.readPktSize::6               1140664                       # Read request sizes (log2)
system.mem_ctrls.writePktSize::0                    0                       # Write request sizes (log2)
system.mem_ctrls.writePktSize::1                    0                       # Write request sizes (log2)
system.mem_ctrls.writePktSize::2                    0                       # Write request sizes (log2)
system.mem_ctrls.writePktSize::3                    0                       # Write request sizes (log2)
system.mem_ctrls.writePktSize::4                    0                       # Write request sizes (log2)
system.mem_ctrls.writePktSize::5                    0                       # Write request sizes (log2)
system.mem_ctrls.writePktSize::6               794630                       # Write request sizes (log2)
system.mem_ctrls.rdQLenPdf::0                  683381                       # What read queue length does an incoming req see
system.mem_ctrls.rdQLenPdf::1                  386918                       # What read queue length does an incoming req see
system.mem_ctrls.rdQLenPdf::2                   46012                       # What read queue length does an incoming req see
system.mem_ctrls.rdQLenPdf::3                   16262                       # What read queue length does an incoming req see
system.mem_ctrls.rdQLenPdf::4                    2432                       # What read queue length does an incoming req see
system.mem_ctrls.rdQLenPdf::5                     840                       # What read queue length does an incoming req see
system.mem_ctrls.rdQLenPdf::6                     204                       # What read queue length does an incoming req see
system.mem_ctrls.rdQLenPdf::7                     100                       # What read queue length does an incoming req see
system.mem_ctrls.rdQLenPdf::8                      30                       # What read queue length does an incoming req see
system.mem_ctrls.rdQLenPdf::9                      11                       # What read queue length does an incoming req see
system.mem_ctrls.rdQLenPdf::10                      1                       # What read queue length does an incoming req see
system.mem_ctrls.rdQLenPdf::11                      0                       # What read queue length does an incoming req see
system.mem_ctrls.rdQLenPdf::12                      0                       # What read queue length does an incoming req see
system.mem_ctrls.rdQLenPdf::13                      0                       # What read queue length does an incoming req see
system.mem_ctrls.rdQLenPdf::14                      0                       # What read queue length does an incoming req see
system.mem_ctrls.rdQLenPdf::15                      0                       # What read queue length does an incoming req see
system.mem_ctrls.rdQLenPdf::16                      0                       # What read queue length does an incoming req see
system.mem_ctrls.rdQLenPdf::17                      0                       # What read queue length does an incoming req see
system.mem_ctrls.rdQLenPdf::18                      0                       # What read queue length does an incoming req see
system.mem_ctrls.rdQLenPdf::19                      0                       # What read queue length does an incoming req see
system.mem_ctrls.rdQLenPdf::20                      0                       # What read queue length does an incoming req see
system.mem_ctrls.rdQLenPdf::21                      0                       # What read queue length does an incoming req see
system.mem_ctrls.rdQLenPdf::22                      0                       # What read queue length does an incoming req see
system.mem_ctrls.rdQLenPdf::23                      0                       # What read queue length does an incoming req see
system.mem_ctrls.rdQLenPdf::24                      0                       # What read queue length does an incoming req see
system.mem_ctrls.rdQLenPdf::25                      0                       # What read queue length does an incoming req see
system.mem_ctrls.rdQLenPdf::26                      0                       # What read queue length does an incoming req see
system.mem_ctrls.rdQLenPdf::27                      0                       # What read queue length does an incoming req see
system.mem_ctrls.rdQLenPdf::28                      0                       # What read queue length does an incoming req see
system.mem_ctrls.rdQLenPdf::29                      0                       # What read queue length does an incoming req see
system.mem_ctrls.rdQLenPdf::30                      0                       # What read queue length does an incoming req see
system.mem_ctrls.rdQLenPdf::31                      0                       # What read queue length does an incoming req see
system.mem_ctrls.wrQLenPdf::0                       0                       # What write queue length does an incoming req see
system.mem_ctrls.wrQLenPdf::1                       0                       # What write queue length does an incoming req see
system.mem_ctrls.wrQLenPdf::2                       0                       # What write queue length does an incoming req see
system.mem_ctrls.wrQLenPdf::3                       1                       # What write queue length does an incoming req see
system.mem_ctrls.wrQLenPdf::4                       1                       # What write queue length does an incoming req see
system.mem_ctrls.wrQLenPdf::5                       1                       # What write queue length does an incoming req see
system.mem_ctrls.wrQLenPdf::6                       1                       # What write queue length does an incoming req see
system.mem_ctrls.wrQLenPdf::7                       1                       # What write queue length does an incoming req see
system.mem_ctrls.wrQLenPdf::8                       1                       # What write queue length does an incoming req see
system.mem_ctrls.wrQLenPdf::9                       1                       # What write queue length does an incoming req see
system.mem_ctrls.wrQLenPdf::10                      1                       # What write queue length does an incoming req see
system.mem_ctrls.wrQLenPdf::11                      1                       # What write queue length does an incoming req see
system.mem_ctrls.wrQLenPdf::12                      1                       # What write queue length does an incoming req see
system.mem_ctrls.wrQLenPdf::13                      1                       # What write queue length does an incoming req see
system.mem_ctrls.wrQLenPdf::14                      1                       # What write queue length does an incoming req see
system.mem_ctrls.wrQLenPdf::15                   9996                       # What write queue length does an incoming req see
system.mem_ctrls.wrQLenPdf::16                  10903                       # What write queue length does an incoming req see
system.mem_ctrls.wrQLenPdf::17                  30117                       # What write queue length does an incoming req see
system.mem_ctrls.wrQLenPdf::18                  43758                       # What write queue length does an incoming req see
system.mem_ctrls.wrQLenPdf::19                  46331                       # What write queue length does an incoming req see
system.mem_ctrls.wrQLenPdf::20                  47250                       # What write queue length does an incoming req see
system.mem_ctrls.wrQLenPdf::21                  47921                       # What write queue length does an incoming req see
system.mem_ctrls.wrQLenPdf::22                  48353                       # What write queue length does an incoming req see
system.mem_ctrls.wrQLenPdf::23                  49021                       # What write queue length does an incoming req see
system.mem_ctrls.wrQLenPdf::24                  49167                       # What write queue length does an incoming req see
system.mem_ctrls.wrQLenPdf::25                  50067                       # What write queue length does an incoming req see
system.mem_ctrls.wrQLenPdf::26                  50981                       # What write queue length does an incoming req see
system.mem_ctrls.wrQLenPdf::27                  50059                       # What write queue length does an incoming req see
system.mem_ctrls.wrQLenPdf::28                  51329                       # What write queue length does an incoming req see
system.mem_ctrls.wrQLenPdf::29                  54812                       # What write queue length does an incoming req see
system.mem_ctrls.wrQLenPdf::30                  50521                       # What write queue length does an incoming req see
system.mem_ctrls.wrQLenPdf::31                  50623                       # What write queue length does an incoming req see
system.mem_ctrls.wrQLenPdf::32                  47965                       # What write queue length does an incoming req see
system.mem_ctrls.wrQLenPdf::33                    680                       # What write queue length does an incoming req see
system.mem_ctrls.wrQLenPdf::34                    414                       # What write queue length does an incoming req see
system.mem_ctrls.wrQLenPdf::35                    419                       # What write queue length does an incoming req see
system.mem_ctrls.wrQLenPdf::36                    311                       # What write queue length does an incoming req see
system.mem_ctrls.wrQLenPdf::37                    296                       # What write queue length does an incoming req see
system.mem_ctrls.wrQLenPdf::38                    226                       # What write queue length does an incoming req see
system.mem_ctrls.wrQLenPdf::39                    207                       # What write queue length does an incoming req see
system.mem_ctrls.wrQLenPdf::40                    201                       # What write queue length does an incoming req see
system.mem_ctrls.wrQLenPdf::41                    174                       # What write queue length does an incoming req see
system.mem_ctrls.wrQLenPdf::42                    214                       # What write queue length does an incoming req see
system.mem_ctrls.wrQLenPdf::43                    181                       # What write queue length does an incoming req see
system.mem_ctrls.wrQLenPdf::44                    142                       # What write queue length does an incoming req see
system.mem_ctrls.wrQLenPdf::45                    145                       # What write queue length does an incoming req see
system.mem_ctrls.wrQLenPdf::46                    139                       # What write queue length does an incoming req see
system.mem_ctrls.wrQLenPdf::47                    127                       # What write queue length does an incoming req see
system.mem_ctrls.wrQLenPdf::48                     98                       # What write queue length does an incoming req see
system.mem_ctrls.wrQLenPdf::49                    113                       # What write queue length does an incoming req see
system.mem_ctrls.wrQLenPdf::50                    157                       # What write queue length does an incoming req see
system.mem_ctrls.wrQLenPdf::51                    152                       # What write queue length does an incoming req see
system.mem_ctrls.wrQLenPdf::52                     96                       # What write queue length does an incoming req see
system.mem_ctrls.wrQLenPdf::53                    129                       # What write queue length does an incoming req see
system.mem_ctrls.wrQLenPdf::54                    142                       # What write queue length does an incoming req see
system.mem_ctrls.wrQLenPdf::55                     86                       # What write queue length does an incoming req see
system.mem_ctrls.wrQLenPdf::56                    108                       # What write queue length does an incoming req see
system.mem_ctrls.wrQLenPdf::57                     82                       # What write queue length does an incoming req see
system.mem_ctrls.wrQLenPdf::58                     75                       # What write queue length does an incoming req see
system.mem_ctrls.wrQLenPdf::59                     59                       # What write queue length does an incoming req see
system.mem_ctrls.wrQLenPdf::60                     30                       # What write queue length does an incoming req see
system.mem_ctrls.wrQLenPdf::61                     58                       # What write queue length does an incoming req see
system.mem_ctrls.wrQLenPdf::62                     56                       # What write queue length does an incoming req see
system.mem_ctrls.wrQLenPdf::63                    127                       # What write queue length does an incoming req see
system.mem_ctrls.bytesPerActivate::samples       592860                       # Bytes accessed per row activation
system.mem_ctrls.bytesPerActivate::mean    208.435044                       # Bytes accessed per row activation
system.mem_ctrls.bytesPerActivate::gmean   131.063037                       # Bytes accessed per row activation
system.mem_ctrls.bytesPerActivate::stdev   247.485233                       # Bytes accessed per row activation
system.mem_ctrls.bytesPerActivate::0-127       296565     50.02%     50.02% # Bytes accessed per row activation
system.mem_ctrls.bytesPerActivate::128-255       145934     24.62%     74.64% # Bytes accessed per row activation
system.mem_ctrls.bytesPerActivate::256-383        51162      8.63%     83.27% # Bytes accessed per row activation
system.mem_ctrls.bytesPerActivate::384-511        27634      4.66%     87.93% # Bytes accessed per row activation
system.mem_ctrls.bytesPerActivate::512-639        18538      3.13%     91.06% # Bytes accessed per row activation
system.mem_ctrls.bytesPerActivate::640-767        12229      2.06%     93.12% # Bytes accessed per row activation
system.mem_ctrls.bytesPerActivate::768-895         8162      1.38%     94.50% # Bytes accessed per row activation
system.mem_ctrls.bytesPerActivate::896-1023         6135      1.03%     95.53% # Bytes accessed per row activation
system.mem_ctrls.bytesPerActivate::1024-1151        26501      4.47%    100.00% # Bytes accessed per row activation
system.mem_ctrls.bytesPerActivate::total       592860                       # Bytes accessed per row activation
system.mem_ctrls.rdPerTurnAround::samples        47314                       # Reads before turning the bus around for writes
system.mem_ctrls.rdPerTurnAround::mean      24.314833                       # Reads before turning the bus around for writes
system.mem_ctrls.rdPerTurnAround::stdev     79.513083                       # Reads before turning the bus around for writes
system.mem_ctrls.rdPerTurnAround::0-1023        47313    100.00%    100.00% # Reads before turning the bus around for writes
system.mem_ctrls.rdPerTurnAround::16384-17407            1      0.00%    100.00% # Reads before turning the bus around for writes
system.mem_ctrls.rdPerTurnAround::total         47314                       # Reads before turning the bus around for writes
system.mem_ctrls.wrPerTurnAround::samples        47313                       # Writes before turning the bus around for reads
system.mem_ctrls.wrPerTurnAround::mean      16.794538                       # Writes before turning the bus around for reads
system.mem_ctrls.wrPerTurnAround::gmean     16.625180                       # Writes before turning the bus around for reads
system.mem_ctrls.wrPerTurnAround::stdev      3.870269                       # Writes before turning the bus around for reads
system.mem_ctrls.wrPerTurnAround::16-19         46315     97.89%     97.89% # Writes before turning the bus around for reads
system.mem_ctrls.wrPerTurnAround::20-23           518      1.09%     98.99% # Writes before turning the bus around for reads
system.mem_ctrls.wrPerTurnAround::24-27            40      0.08%     99.07% # Writes before turning the bus around for reads
system.mem_ctrls.wrPerTurnAround::28-31            46      0.10%     99.17% # Writes before turning the bus around for reads
system.mem_ctrls.wrPerTurnAround::32-35           150      0.32%     99.48% # Writes before turning the bus around for reads
system.mem_ctrls.wrPerTurnAround::36-39            38      0.08%     99.56% # Writes before turning the bus around for reads
system.mem_ctrls.wrPerTurnAround::40-43            29      0.06%     99.63% # Writes before turning the bus around for reads
system.mem_ctrls.wrPerTurnAround::44-47            13      0.03%     99.65% # Writes before turning the bus around for reads
system.mem_ctrls.wrPerTurnAround::48-51            24      0.05%     99.70% # Writes before turning the bus around for reads
system.mem_ctrls.wrPerTurnAround::52-55             9      0.02%     99.72% # Writes before turning the bus around for reads
system.mem_ctrls.wrPerTurnAround::56-59            12      0.03%     99.75% # Writes before turning the bus around for reads
system.mem_ctrls.wrPerTurnAround::60-63            15      0.03%     99.78% # Writes before turning the bus around for reads
system.mem_ctrls.wrPerTurnAround::64-67            60      0.13%     99.91% # Writes before turning the bus around for reads
system.mem_ctrls.wrPerTurnAround::68-71             2      0.00%     99.91% # Writes before turning the bus around for reads
system.mem_ctrls.wrPerTurnAround::72-75             5      0.01%     99.92% # Writes before turning the bus around for reads
system.mem_ctrls.wrPerTurnAround::76-79             4      0.01%     99.93% # Writes before turning the bus around for reads
system.mem_ctrls.wrPerTurnAround::80-83             3      0.01%     99.94% # Writes before turning the bus around for reads
system.mem_ctrls.wrPerTurnAround::84-87             2      0.00%     99.94% # Writes before turning the bus around for reads
system.mem_ctrls.wrPerTurnAround::88-91             4      0.01%     99.95% # Writes before turning the bus around for reads
system.mem_ctrls.wrPerTurnAround::92-95             2      0.00%     99.95% # Writes before turning the bus around for reads
system.mem_ctrls.wrPerTurnAround::96-99             3      0.01%     99.96% # Writes before turning the bus around for reads
system.mem_ctrls.wrPerTurnAround::100-103            1      0.00%     99.96% # Writes before turning the bus around for reads
system.mem_ctrls.wrPerTurnAround::104-107            1      0.00%     99.96% # Writes before turning the bus around for reads
system.mem_ctrls.wrPerTurnAround::108-111            5      0.01%     99.97% # Writes before turning the bus around for reads
system.mem_ctrls.wrPerTurnAround::112-115            1      0.00%     99.98% # Writes before turning the bus around for reads
system.mem_ctrls.wrPerTurnAround::124-127            1      0.00%     99.98% # Writes before turning the bus around for reads
system.mem_ctrls.wrPerTurnAround::128-131            4      0.01%     99.99% # Writes before turning the bus around for reads
system.mem_ctrls.wrPerTurnAround::132-135            2      0.00%     99.99% # Writes before turning the bus around for reads
system.mem_ctrls.wrPerTurnAround::140-143            2      0.00%    100.00% # Writes before turning the bus around for reads
system.mem_ctrls.wrPerTurnAround::144-147            1      0.00%    100.00% # Writes before turning the bus around for reads
system.mem_ctrls.wrPerTurnAround::188-191            1      0.00%    100.00% # Writes before turning the bus around for reads
system.mem_ctrls.wrPerTurnAround::total         47313                       # Writes before turning the bus around for reads
system.mem_ctrls.totQLat                  23248779750                       # Total ticks spent queuing
system.mem_ctrls.totMemAccLat             44552361000                       # Total ticks spent from burst creation until serviced by the DRAM
system.mem_ctrls.totBusLat                 5680955000                       # Total ticks spent in databus transfers
system.mem_ctrls.avgQLat                     20462.03                       # Average queueing delay per DRAM burst
system.mem_ctrls.avgBusLat                    5000.00                       # Average bus latency per DRAM burst
system.mem_ctrls.avgMemAccLat                39212.03                       # Average memory access latency per DRAM burst
system.mem_ctrls.avgRdBW                       144.90                       # Average DRAM read bandwidth in MiByte/s
system.mem_ctrls.avgWrBW                       101.34                       # Average achieved write bandwidth in MiByte/s
system.mem_ctrls.avgRdBWSys                    145.47                       # Average system read bandwidth in MiByte/s
system.mem_ctrls.avgWrBWSys                    101.34                       # Average system write bandwidth in MiByte/s
system.mem_ctrls.peakBW                      12800.00                       # Theoretical peak bandwidth in MiByte/s
system.mem_ctrls.busUtil                         1.92                       # Data bus utilization in percentage
system.mem_ctrls.busUtilRead                     1.13                       # Data bus utilization in percentage for reads
system.mem_ctrls.busUtilWrite                    0.79                       # Data bus utilization in percentage for writes
system.mem_ctrls.avgRdQLen                       1.25                       # Average read queue length when enqueuing
system.mem_ctrls.avgWrQLen                      25.08                       # Average write queue length when enqueuing
system.mem_ctrls.readRowHits                   843476                       # Number of row buffer hits during reads
system.mem_ctrls.writeRowHits                  494459                       # Number of row buffer hits during writes
system.mem_ctrls.readRowHitRate                 74.24                       # Row buffer hit rate for reads
system.mem_ctrls.writeRowHitRate                62.23                       # Row buffer hit rate for writes
system.mem_ctrls.avgGap                     259311.01                       # Average gap between requests
system.mem_ctrls.pageHitRate                    69.29                       # Row buffer hit rate, read and write combined
system.mem_ctrls_0.actEnergy               2278493280                       # Energy for activate commands per rank (pJ)
system.mem_ctrls_0.preEnergy               1243225500                       # Energy for precharge commands per rank (pJ)
system.mem_ctrls_0.readEnergy              4589754000                       # Energy for read commands per rank (pJ)
system.mem_ctrls_0.writeEnergy             2564946000                       # Energy for write commands per rank (pJ)
system.mem_ctrls_0.refreshEnergy          32813816880                       # Energy for refresh commands per rank (pJ)
system.mem_ctrls_0.actBackEnergy         164314043640                       # Energy for active background per rank (pJ)
system.mem_ctrls_0.preBackEnergy         157300355250                       # Energy for precharge background per rank (pJ)
system.mem_ctrls_0.totalEnergy           365104634550                       # Total energy per rank (pJ)
system.mem_ctrls_0.averagePower            726.731902                       # Core power per rank (mW)
system.mem_ctrls_0.memoryStateTime::IDLE 260398202750                       # Time in different power states
system.mem_ctrls_0.memoryStateTime::REF   16757780000                       # Time in different power states
system.mem_ctrls_0.memoryStateTime::PRE_PDN            0                       # Time in different power states
system.mem_ctrls_0.memoryStateTime::ACT  224691530000                       # Time in different power states
system.mem_ctrls_0.memoryStateTime::ACT_PDN            0                       # Time in different power states
system.mem_ctrls_1.actEnergy               2235197160                       # Energy for activate commands per rank (pJ)
system.mem_ctrls_1.preEnergy               1219601625                       # Energy for precharge commands per rank (pJ)
system.mem_ctrls_1.readEnergy              4382937000                       # Energy for read commands per rank (pJ)
system.mem_ctrls_1.writeEnergy             2583750960                       # Energy for write commands per rank (pJ)
system.mem_ctrls_1.refreshEnergy          32813816880                       # Energy for refresh commands per rank (pJ)
system.mem_ctrls_1.actBackEnergy         155639716380                       # Energy for active background per rank (pJ)
system.mem_ctrls_1.preBackEnergy         164909414250                       # Energy for precharge background per rank (pJ)
system.mem_ctrls_1.totalEnergy           363784434255                       # Total energy per rank (pJ)
system.mem_ctrls_1.averagePower            724.104076                       # Core power per rank (mW)
system.mem_ctrls_1.memoryStateTime::IDLE 273131282250                       # Time in different power states
system.mem_ctrls_1.memoryStateTime::REF   16757780000                       # Time in different power states
system.mem_ctrls_1.memoryStateTime::PRE_PDN            0                       # Time in different power states
system.mem_ctrls_1.memoryStateTime::ACT  211957943250                       # Time in different power states
system.mem_ctrls_1.memoryStateTime::ACT_PDN            0                       # Time in different power states
system.realview.nvmem.pwrStateResidencyTicks::UNDEFINED 3738257516000                       # Cumulative time (in ticks) in various power states
system.realview.vram.pwrStateResidencyTicks::UNDEFINED 3738257516000                       # Cumulative time (in ticks) in various power states
system.pwrStateResidencyTicks::UNDEFINED 3738257516000                       # Cumulative time (in ticks) in various power states
system.bridge.pwrStateResidencyTicks::UNDEFINED 3738257516000                       # Cumulative time (in ticks) in various power states
system.cf0.dma_read_full_pages                      0                       # Number of full page size DMA reads (not PRD).
system.cf0.dma_read_bytes                           0                       # Number of bytes transfered via DMA reads (not PRD).
system.cf0.dma_read_txs                             0                       # Number of DMA read transactions (not PRD).
system.cf0.dma_write_full_pages                   443                       # Number of full page size DMA writes.
system.cf0.dma_write_bytes                    1846272                       # Number of bytes transfered via DMA writes.
system.cf0.dma_write_txs                          471                       # Number of DMA write transactions.
system.cpu_voltage_domain.voltage                   1                       # Voltage in Volts
system.cpu_clk_domain.clock                       500                       # Clock period in ticks
system.cpu0.dstage2_mmu.stage2_tlb.walker.pwrStateResidencyTicks::UNDEFINED 3738257516000                       # Cumulative time (in ticks) in various power states
system.cpu0.dstage2_mmu.stage2_tlb.walker.walks            0                       # Table walker walks requested
system.cpu0.dstage2_mmu.stage2_tlb.walker.walkRequestOrigin_Requested::Data            0                       # Table walker requests started/completed, data/inst
system.cpu0.dstage2_mmu.stage2_tlb.walker.walkRequestOrigin_Requested::Inst            0                       # Table walker requests started/completed, data/inst
system.cpu0.dstage2_mmu.stage2_tlb.walker.walkRequestOrigin_Requested::total            0                       # Table walker requests started/completed, data/inst
system.cpu0.dstage2_mmu.stage2_tlb.walker.walkRequestOrigin_Completed::Data            0                       # Table walker requests started/completed, data/inst
system.cpu0.dstage2_mmu.stage2_tlb.walker.walkRequestOrigin_Completed::Inst            0                       # Table walker requests started/completed, data/inst
system.cpu0.dstage2_mmu.stage2_tlb.walker.walkRequestOrigin_Completed::total            0                       # Table walker requests started/completed, data/inst
system.cpu0.dstage2_mmu.stage2_tlb.walker.walkRequestOrigin::total            0                       # Table walker requests started/completed, data/inst
system.cpu0.dstage2_mmu.stage2_tlb.inst_hits            0                       # ITB inst hits
system.cpu0.dstage2_mmu.stage2_tlb.inst_misses            0                       # ITB inst misses
system.cpu0.dstage2_mmu.stage2_tlb.read_hits            0                       # DTB read hits
system.cpu0.dstage2_mmu.stage2_tlb.read_misses            0                       # DTB read misses
system.cpu0.dstage2_mmu.stage2_tlb.write_hits            0                       # DTB write hits
system.cpu0.dstage2_mmu.stage2_tlb.write_misses            0                       # DTB write misses
system.cpu0.dstage2_mmu.stage2_tlb.flush_tlb            0                       # Number of times complete TLB was flushed
system.cpu0.dstage2_mmu.stage2_tlb.flush_tlb_mva            0                       # Number of times TLB was flushed by MVA
system.cpu0.dstage2_mmu.stage2_tlb.flush_tlb_mva_asid            0                       # Number of times TLB was flushed by MVA & ASID
system.cpu0.dstage2_mmu.stage2_tlb.flush_tlb_asid            0                       # Number of times TLB was flushed by ASID
system.cpu0.dstage2_mmu.stage2_tlb.flush_entries            0                       # Number of entries that have been flushed from TLB
system.cpu0.dstage2_mmu.stage2_tlb.align_faults            0                       # Number of TLB faults due to alignment restrictions
system.cpu0.dstage2_mmu.stage2_tlb.prefetch_faults            0                       # Number of TLB faults due to prefetch
system.cpu0.dstage2_mmu.stage2_tlb.domain_faults            0                       # Number of TLB faults due to domain restrictions
system.cpu0.dstage2_mmu.stage2_tlb.perms_faults            0                       # Number of TLB faults due to permissions restrictions
system.cpu0.dstage2_mmu.stage2_tlb.read_accesses            0                       # DTB read accesses
system.cpu0.dstage2_mmu.stage2_tlb.write_accesses            0                       # DTB write accesses
system.cpu0.dstage2_mmu.stage2_tlb.inst_accesses            0                       # ITB inst accesses
system.cpu0.dstage2_mmu.stage2_tlb.hits             0                       # DTB hits
system.cpu0.dstage2_mmu.stage2_tlb.misses            0                       # DTB misses
system.cpu0.dstage2_mmu.stage2_tlb.accesses            0                       # DTB accesses
system.cpu0.dtb.walker.pwrStateResidencyTicks::UNDEFINED 3738257516000                       # Cumulative time (in ticks) in various power states
system.cpu0.dtb.walker.walks                        0                       # Table walker walks requested
system.cpu0.dtb.walker.walkRequestOrigin_Requested::Data            0                       # Table walker requests started/completed, data/inst
system.cpu0.dtb.walker.walkRequestOrigin_Requested::Inst            0                       # Table walker requests started/completed, data/inst
system.cpu0.dtb.walker.walkRequestOrigin_Requested::total            0                       # Table walker requests started/completed, data/inst
system.cpu0.dtb.walker.walkRequestOrigin_Completed::Data            0                       # Table walker requests started/completed, data/inst
system.cpu0.dtb.walker.walkRequestOrigin_Completed::Inst            0                       # Table walker requests started/completed, data/inst
system.cpu0.dtb.walker.walkRequestOrigin_Completed::total            0                       # Table walker requests started/completed, data/inst
system.cpu0.dtb.walker.walkRequestOrigin::total            0                       # Table walker requests started/completed, data/inst
system.cpu0.dtb.inst_hits                           0                       # ITB inst hits
system.cpu0.dtb.inst_misses                         0                       # ITB inst misses
system.cpu0.dtb.read_hits                           0                       # DTB read hits
system.cpu0.dtb.read_misses                         0                       # DTB read misses
system.cpu0.dtb.write_hits                          0                       # DTB write hits
system.cpu0.dtb.write_misses                        0                       # DTB write misses
system.cpu0.dtb.flush_tlb                           0                       # Number of times complete TLB was flushed
system.cpu0.dtb.flush_tlb_mva                       0                       # Number of times TLB was flushed by MVA
system.cpu0.dtb.flush_tlb_mva_asid                  0                       # Number of times TLB was flushed by MVA & ASID
system.cpu0.dtb.flush_tlb_asid                      0                       # Number of times TLB was flushed by ASID
system.cpu0.dtb.flush_entries                       0                       # Number of entries that have been flushed from TLB
system.cpu0.dtb.align_faults                        0                       # Number of TLB faults due to alignment restrictions
system.cpu0.dtb.prefetch_faults                     0                       # Number of TLB faults due to prefetch
system.cpu0.dtb.domain_faults                       0                       # Number of TLB faults due to domain restrictions
system.cpu0.dtb.perms_faults                        0                       # Number of TLB faults due to permissions restrictions
system.cpu0.dtb.read_accesses                       0                       # DTB read accesses
system.cpu0.dtb.write_accesses                      0                       # DTB write accesses
system.cpu0.dtb.inst_accesses                       0                       # ITB inst accesses
system.cpu0.dtb.hits                                0                       # DTB hits
system.cpu0.dtb.misses                              0                       # DTB misses
system.cpu0.dtb.accesses                            0                       # DTB accesses
system.cpu0.istage2_mmu.stage2_tlb.walker.pwrStateResidencyTicks::UNDEFINED 3738257516000                       # Cumulative time (in ticks) in various power states
system.cpu0.istage2_mmu.stage2_tlb.walker.walks            0                       # Table walker walks requested
system.cpu0.istage2_mmu.stage2_tlb.walker.walkRequestOrigin_Requested::Data            0                       # Table walker requests started/completed, data/inst
system.cpu0.istage2_mmu.stage2_tlb.walker.walkRequestOrigin_Requested::Inst            0                       # Table walker requests started/completed, data/inst
system.cpu0.istage2_mmu.stage2_tlb.walker.walkRequestOrigin_Requested::total            0                       # Table walker requests started/completed, data/inst
system.cpu0.istage2_mmu.stage2_tlb.walker.walkRequestOrigin_Completed::Data            0                       # Table walker requests started/completed, data/inst
system.cpu0.istage2_mmu.stage2_tlb.walker.walkRequestOrigin_Completed::Inst            0                       # Table walker requests started/completed, data/inst
system.cpu0.istage2_mmu.stage2_tlb.walker.walkRequestOrigin_Completed::total            0                       # Table walker requests started/completed, data/inst
system.cpu0.istage2_mmu.stage2_tlb.walker.walkRequestOrigin::total            0                       # Table walker requests started/completed, data/inst
system.cpu0.istage2_mmu.stage2_tlb.inst_hits            0                       # ITB inst hits
system.cpu0.istage2_mmu.stage2_tlb.inst_misses            0                       # ITB inst misses
system.cpu0.istage2_mmu.stage2_tlb.read_hits            0                       # DTB read hits
system.cpu0.istage2_mmu.stage2_tlb.read_misses            0                       # DTB read misses
system.cpu0.istage2_mmu.stage2_tlb.write_hits            0                       # DTB write hits
system.cpu0.istage2_mmu.stage2_tlb.write_misses            0                       # DTB write misses
system.cpu0.istage2_mmu.stage2_tlb.flush_tlb            0                       # Number of times complete TLB was flushed
system.cpu0.istage2_mmu.stage2_tlb.flush_tlb_mva            0                       # Number of times TLB was flushed by MVA
system.cpu0.istage2_mmu.stage2_tlb.flush_tlb_mva_asid            0                       # Number of times TLB was flushed by MVA & ASID
system.cpu0.istage2_mmu.stage2_tlb.flush_tlb_asid            0                       # Number of times TLB was flushed by ASID
system.cpu0.istage2_mmu.stage2_tlb.flush_entries            0                       # Number of entries that have been flushed from TLB
system.cpu0.istage2_mmu.stage2_tlb.align_faults            0                       # Number of TLB faults due to alignment restrictions
system.cpu0.istage2_mmu.stage2_tlb.prefetch_faults            0                       # Number of TLB faults due to prefetch
system.cpu0.istage2_mmu.stage2_tlb.domain_faults            0                       # Number of TLB faults due to domain restrictions
system.cpu0.istage2_mmu.stage2_tlb.perms_faults            0                       # Number of TLB faults due to permissions restrictions
system.cpu0.istage2_mmu.stage2_tlb.read_accesses            0                       # DTB read accesses
system.cpu0.istage2_mmu.stage2_tlb.write_accesses            0                       # DTB write accesses
system.cpu0.istage2_mmu.stage2_tlb.inst_accesses            0                       # ITB inst accesses
system.cpu0.istage2_mmu.stage2_tlb.hits             0                       # DTB hits
system.cpu0.istage2_mmu.stage2_tlb.misses            0                       # DTB misses
system.cpu0.istage2_mmu.stage2_tlb.accesses            0                       # DTB accesses
system.cpu0.itb.walker.pwrStateResidencyTicks::UNDEFINED 3738257516000                       # Cumulative time (in ticks) in various power states
system.cpu0.itb.walker.walks                        0                       # Table walker walks requested
system.cpu0.itb.walker.walkRequestOrigin_Requested::Data            0                       # Table walker requests started/completed, data/inst
system.cpu0.itb.walker.walkRequestOrigin_Requested::Inst            0                       # Table walker requests started/completed, data/inst
system.cpu0.itb.walker.walkRequestOrigin_Requested::total            0                       # Table walker requests started/completed, data/inst
system.cpu0.itb.walker.walkRequestOrigin_Completed::Data            0                       # Table walker requests started/completed, data/inst
system.cpu0.itb.walker.walkRequestOrigin_Completed::Inst            0                       # Table walker requests started/completed, data/inst
system.cpu0.itb.walker.walkRequestOrigin_Completed::total            0                       # Table walker requests started/completed, data/inst
system.cpu0.itb.walker.walkRequestOrigin::total            0                       # Table walker requests started/completed, data/inst
system.cpu0.itb.inst_hits                           0                       # ITB inst hits
system.cpu0.itb.inst_misses                         0                       # ITB inst misses
system.cpu0.itb.read_hits                           0                       # DTB read hits
system.cpu0.itb.read_misses                         0                       # DTB read misses
system.cpu0.itb.write_hits                          0                       # DTB write hits
system.cpu0.itb.write_misses                        0                       # DTB write misses
system.cpu0.itb.flush_tlb                           0                       # Number of times complete TLB was flushed
system.cpu0.itb.flush_tlb_mva                       0                       # Number of times TLB was flushed by MVA
system.cpu0.itb.flush_tlb_mva_asid                  0                       # Number of times TLB was flushed by MVA & ASID
system.cpu0.itb.flush_tlb_asid                      0                       # Number of times TLB was flushed by ASID
system.cpu0.itb.flush_entries                       0                       # Number of entries that have been flushed from TLB
system.cpu0.itb.align_faults                        0                       # Number of TLB faults due to alignment restrictions
system.cpu0.itb.prefetch_faults                     0                       # Number of TLB faults due to prefetch
system.cpu0.itb.domain_faults                       0                       # Number of TLB faults due to domain restrictions
system.cpu0.itb.perms_faults                        0                       # Number of TLB faults due to permissions restrictions
system.cpu0.itb.read_accesses                       0                       # DTB read accesses
system.cpu0.itb.write_accesses                      0                       # DTB write accesses
system.cpu0.itb.inst_accesses                       0                       # ITB inst accesses
system.cpu0.itb.hits                                0                       # DTB hits
system.cpu0.itb.misses                              0                       # DTB misses
system.cpu0.itb.accesses                            0                       # DTB accesses
system.cpu0.pwrStateResidencyTicks::ON   502395778000                       # Cumulative time (in ticks) in various power states
system.cpu0.numCycles                               0                       # number of cpu cycles simulated
system.cpu0.numWorkItemsStarted                     0                       # number of work items this cpu started
system.cpu0.numWorkItemsCompleted                   0                       # number of work items this cpu completed
system.cpu0.kern.inst.arm                           0                       # number of arm instructions executed
system.cpu0.kern.inst.quiesce                    7259                       # number of quiesce instructions executed
system.cpu0.committedInsts                          0                       # Number of instructions committed
system.cpu0.committedOps                            0                       # Number of ops (including micro ops) committed
system.cpu0.num_int_alu_accesses                    0                       # Number of integer alu accesses
system.cpu0.num_fp_alu_accesses                     0                       # Number of float alu accesses
system.cpu0.num_func_calls                          0                       # number of times a function call or return occured
system.cpu0.num_conditional_control_insts            0                       # number of instructions that are conditional controls
system.cpu0.num_int_insts                           0                       # number of integer instructions
system.cpu0.num_fp_insts                            0                       # number of float instructions
system.cpu0.num_int_register_reads                  0                       # number of times the integer registers were read
system.cpu0.num_int_register_writes                 0                       # number of times the integer registers were written
system.cpu0.num_fp_register_reads                   0                       # number of times the floating registers were read
system.cpu0.num_fp_register_writes                  0                       # number of times the floating registers were written
system.cpu0.num_mem_refs                            0                       # number of memory refs
system.cpu0.num_load_insts                          0                       # Number of load instructions
system.cpu0.num_store_insts                         0                       # Number of store instructions
system.cpu0.num_idle_cycles                         0                       # Number of idle cycles
system.cpu0.num_busy_cycles                         0                       # Number of busy cycles
system.cpu0.not_idle_fraction                       0                       # Percentage of non-idle cycles
system.cpu0.idle_fraction                           1                       # Percentage of idle cycles
system.cpu0.op_class::No_OpClass                    0                       # Class of executed instruction
system.cpu0.op_class::IntAlu                        0                       # Class of executed instruction
system.cpu0.op_class::IntMult                       0                       # Class of executed instruction
system.cpu0.op_class::IntDiv                        0                       # Class of executed instruction
system.cpu0.op_class::FloatAdd                      0                       # Class of executed instruction
system.cpu0.op_class::FloatCmp                      0                       # Class of executed instruction
system.cpu0.op_class::FloatCvt                      0                       # Class of executed instruction
system.cpu0.op_class::FloatMult                     0                       # Class of executed instruction
system.cpu0.op_class::FloatDiv                      0                       # Class of executed instruction
system.cpu0.op_class::FloatSqrt                     0                       # Class of executed instruction
system.cpu0.op_class::SimdAdd                       0                       # Class of executed instruction
system.cpu0.op_class::SimdAddAcc                    0                       # Class of executed instruction
system.cpu0.op_class::SimdAlu                       0                       # Class of executed instruction
system.cpu0.op_class::SimdCmp                       0                       # Class of executed instruction
system.cpu0.op_class::SimdCvt                       0                       # Class of executed instruction
system.cpu0.op_class::SimdMisc                      0                       # Class of executed instruction
system.cpu0.op_class::SimdMult                      0                       # Class of executed instruction
system.cpu0.op_class::SimdMultAcc                   0                       # Class of executed instruction
system.cpu0.op_class::SimdShift                     0                       # Class of executed instruction
system.cpu0.op_class::SimdShiftAcc                  0                       # Class of executed instruction
system.cpu0.op_class::SimdSqrt                      0                       # Class of executed instruction
system.cpu0.op_class::SimdFloatAdd                  0                       # Class of executed instruction
system.cpu0.op_class::SimdFloatAlu                  0                       # Class of executed instruction
system.cpu0.op_class::SimdFloatCmp                  0                       # Class of executed instruction
system.cpu0.op_class::SimdFloatCvt                  0                       # Class of executed instruction
system.cpu0.op_class::SimdFloatDiv                  0                       # Class of executed instruction
system.cpu0.op_class::SimdFloatMisc                 0                       # Class of executed instruction
system.cpu0.op_class::SimdFloatMult                 0                       # Class of executed instruction
system.cpu0.op_class::SimdFloatMultAcc              0                       # Class of executed instruction
system.cpu0.op_class::SimdFloatSqrt                 0                       # Class of executed instruction
system.cpu0.op_class::MemRead                       0                       # Class of executed instruction
system.cpu0.op_class::MemWrite                      0                       # Class of executed instruction
system.cpu0.op_class::IprAccess                     0                       # Class of executed instruction
system.cpu0.op_class::InstPrefetch                  0                       # Class of executed instruction
system.cpu0.op_class::total                         0                       # Class of executed instruction
system.cpu0.dcache.tags.pwrStateResidencyTicks::UNDEFINED 3738257516000                       # Cumulative time (in ticks) in various power states
system.cpu0.dcache.tags.replacements          4940607                       # number of replacements
system.cpu0.dcache.tags.tagsinuse          935.813380                       # Cycle average of tags in use
system.cpu0.dcache.tags.total_refs          136118593                       # Total number of references to valid blocks.
system.cpu0.dcache.tags.sampled_refs          4941623                       # Sample count of references to valid blocks.
system.cpu0.dcache.tags.avg_refs            27.545321                       # Average number of references to valid blocks.
system.cpu0.dcache.tags.warmup_cycle     3236999497500                       # Cycle when the warmup percentage was hit.
system.cpu0.dcache.tags.occ_blocks::switch_cpus0.data   935.813380                       # Average occupied blocks per requestor
system.cpu0.dcache.tags.occ_percent::switch_cpus0.data     0.913880                       # Average percentage of cache occupancy
system.cpu0.dcache.tags.occ_percent::total     0.913880                       # Average percentage of cache occupancy
system.cpu0.dcache.tags.occ_task_id_blocks::1024         1016                       # Occupied blocks per task id
system.cpu0.dcache.tags.age_task_id_blocks_1024::0           36                       # Occupied blocks per task id
system.cpu0.dcache.tags.age_task_id_blocks_1024::1          693                       # Occupied blocks per task id
system.cpu0.dcache.tags.age_task_id_blocks_1024::2          282                       # Occupied blocks per task id
system.cpu0.dcache.tags.age_task_id_blocks_1024::3            4                       # Occupied blocks per task id
system.cpu0.dcache.tags.age_task_id_blocks_1024::4            1                       # Occupied blocks per task id
system.cpu0.dcache.tags.occ_task_id_percent::1024     0.992188                       # Percentage of cache occupancy per task id
system.cpu0.dcache.tags.tag_accesses        338436981                       # Number of tag accesses
system.cpu0.dcache.tags.data_accesses       338436981                       # Number of data accesses
system.cpu0.dcache.pwrStateResidencyTicks::UNDEFINED 3738257516000                       # Cumulative time (in ticks) in various power states
system.cpu0.dcache.ReadReq_hits::switch_cpus0.data     83210849                       # number of ReadReq hits
system.cpu0.dcache.ReadReq_hits::total       83210849                       # number of ReadReq hits
system.cpu0.dcache.WriteReq_hits::switch_cpus0.data     48105413                       # number of WriteReq hits
system.cpu0.dcache.WriteReq_hits::total      48105413                       # number of WriteReq hits
system.cpu0.dcache.SoftPFReq_hits::switch_cpus0.data      1072853                       # number of SoftPFReq hits
system.cpu0.dcache.SoftPFReq_hits::total      1072853                       # number of SoftPFReq hits
system.cpu0.dcache.LoadLockedReq_hits::switch_cpus0.data      1613901                       # number of LoadLockedReq hits
system.cpu0.dcache.LoadLockedReq_hits::total      1613901                       # number of LoadLockedReq hits
system.cpu0.dcache.StoreCondReq_hits::switch_cpus0.data      1566805                       # number of StoreCondReq hits
system.cpu0.dcache.StoreCondReq_hits::total      1566805                       # number of StoreCondReq hits
system.cpu0.dcache.demand_hits::switch_cpus0.data    131316262                       # number of demand (read+write) hits
system.cpu0.dcache.demand_hits::total       131316262                       # number of demand (read+write) hits
system.cpu0.dcache.overall_hits::switch_cpus0.data    132389115                       # number of overall hits
system.cpu0.dcache.overall_hits::total      132389115                       # number of overall hits
system.cpu0.dcache.ReadReq_misses::switch_cpus0.data      5922157                       # number of ReadReq misses
system.cpu0.dcache.ReadReq_misses::total      5922157                       # number of ReadReq misses
system.cpu0.dcache.WriteReq_misses::switch_cpus0.data     23851647                       # number of WriteReq misses
system.cpu0.dcache.WriteReq_misses::total     23851647                       # number of WriteReq misses
system.cpu0.dcache.SoftPFReq_misses::switch_cpus0.data      1106346                       # number of SoftPFReq misses
system.cpu0.dcache.SoftPFReq_misses::total      1106346                       # number of SoftPFReq misses
system.cpu0.dcache.LoadLockedReq_misses::switch_cpus0.data       118859                       # number of LoadLockedReq misses
system.cpu0.dcache.LoadLockedReq_misses::total       118859                       # number of LoadLockedReq misses
system.cpu0.dcache.StoreCondReq_misses::switch_cpus0.data        69396                       # number of StoreCondReq misses
system.cpu0.dcache.StoreCondReq_misses::total        69396                       # number of StoreCondReq misses
system.cpu0.dcache.demand_misses::switch_cpus0.data     29773804                       # number of demand (read+write) misses
system.cpu0.dcache.demand_misses::total      29773804                       # number of demand (read+write) misses
system.cpu0.dcache.overall_misses::switch_cpus0.data     30880150                       # number of overall misses
system.cpu0.dcache.overall_misses::total     30880150                       # number of overall misses
system.cpu0.dcache.ReadReq_miss_latency::switch_cpus0.data  76358104500                       # number of ReadReq miss cycles
system.cpu0.dcache.ReadReq_miss_latency::total  76358104500                       # number of ReadReq miss cycles
system.cpu0.dcache.WriteReq_miss_latency::switch_cpus0.data 565838725315                       # number of WriteReq miss cycles
system.cpu0.dcache.WriteReq_miss_latency::total 565838725315                       # number of WriteReq miss cycles
system.cpu0.dcache.LoadLockedReq_miss_latency::switch_cpus0.data   1679457000                       # number of LoadLockedReq miss cycles
system.cpu0.dcache.LoadLockedReq_miss_latency::total   1679457000                       # number of LoadLockedReq miss cycles
system.cpu0.dcache.StoreCondReq_miss_latency::switch_cpus0.data    336003500                       # number of StoreCondReq miss cycles
system.cpu0.dcache.StoreCondReq_miss_latency::total    336003500                       # number of StoreCondReq miss cycles
system.cpu0.dcache.StoreCondFailReq_miss_latency::switch_cpus0.data       151500                       # number of StoreCondFailReq miss cycles
system.cpu0.dcache.StoreCondFailReq_miss_latency::total       151500                       # number of StoreCondFailReq miss cycles
system.cpu0.dcache.demand_miss_latency::switch_cpus0.data 642196829815                       # number of demand (read+write) miss cycles
system.cpu0.dcache.demand_miss_latency::total 642196829815                       # number of demand (read+write) miss cycles
system.cpu0.dcache.overall_miss_latency::switch_cpus0.data 642196829815                       # number of overall miss cycles
system.cpu0.dcache.overall_miss_latency::total 642196829815                       # number of overall miss cycles
system.cpu0.dcache.ReadReq_accesses::switch_cpus0.data     89133006                       # number of ReadReq accesses(hits+misses)
system.cpu0.dcache.ReadReq_accesses::total     89133006                       # number of ReadReq accesses(hits+misses)
system.cpu0.dcache.WriteReq_accesses::switch_cpus0.data     71957060                       # number of WriteReq accesses(hits+misses)
system.cpu0.dcache.WriteReq_accesses::total     71957060                       # number of WriteReq accesses(hits+misses)
system.cpu0.dcache.SoftPFReq_accesses::switch_cpus0.data      2179199                       # number of SoftPFReq accesses(hits+misses)
system.cpu0.dcache.SoftPFReq_accesses::total      2179199                       # number of SoftPFReq accesses(hits+misses)
system.cpu0.dcache.LoadLockedReq_accesses::switch_cpus0.data      1732760                       # number of LoadLockedReq accesses(hits+misses)
system.cpu0.dcache.LoadLockedReq_accesses::total      1732760                       # number of LoadLockedReq accesses(hits+misses)
system.cpu0.dcache.StoreCondReq_accesses::switch_cpus0.data      1636201                       # number of StoreCondReq accesses(hits+misses)
system.cpu0.dcache.StoreCondReq_accesses::total      1636201                       # number of StoreCondReq accesses(hits+misses)
system.cpu0.dcache.demand_accesses::switch_cpus0.data    161090066                       # number of demand (read+write) accesses
system.cpu0.dcache.demand_accesses::total    161090066                       # number of demand (read+write) accesses
system.cpu0.dcache.overall_accesses::switch_cpus0.data    163269265                       # number of overall (read+write) accesses
system.cpu0.dcache.overall_accesses::total    163269265                       # number of overall (read+write) accesses
system.cpu0.dcache.ReadReq_miss_rate::switch_cpus0.data     0.066442                       # miss rate for ReadReq accesses
system.cpu0.dcache.ReadReq_miss_rate::total     0.066442                       # miss rate for ReadReq accesses
system.cpu0.dcache.WriteReq_miss_rate::switch_cpus0.data     0.331471                       # miss rate for WriteReq accesses
system.cpu0.dcache.WriteReq_miss_rate::total     0.331471                       # miss rate for WriteReq accesses
system.cpu0.dcache.SoftPFReq_miss_rate::switch_cpus0.data     0.507685                       # miss rate for SoftPFReq accesses
system.cpu0.dcache.SoftPFReq_miss_rate::total     0.507685                       # miss rate for SoftPFReq accesses
system.cpu0.dcache.LoadLockedReq_miss_rate::switch_cpus0.data     0.068595                       # miss rate for LoadLockedReq accesses
system.cpu0.dcache.LoadLockedReq_miss_rate::total     0.068595                       # miss rate for LoadLockedReq accesses
system.cpu0.dcache.StoreCondReq_miss_rate::switch_cpus0.data     0.042413                       # miss rate for StoreCondReq accesses
system.cpu0.dcache.StoreCondReq_miss_rate::total     0.042413                       # miss rate for StoreCondReq accesses
system.cpu0.dcache.demand_miss_rate::switch_cpus0.data     0.184827                       # miss rate for demand accesses
system.cpu0.dcache.demand_miss_rate::total     0.184827                       # miss rate for demand accesses
system.cpu0.dcache.overall_miss_rate::switch_cpus0.data     0.189136                       # miss rate for overall accesses
system.cpu0.dcache.overall_miss_rate::total     0.189136                       # miss rate for overall accesses
system.cpu0.dcache.ReadReq_avg_miss_latency::switch_cpus0.data 12893.630564                       # average ReadReq miss latency
system.cpu0.dcache.ReadReq_avg_miss_latency::total 12893.630564                       # average ReadReq miss latency
system.cpu0.dcache.WriteReq_avg_miss_latency::switch_cpus0.data 23723.255896                       # average WriteReq miss latency
system.cpu0.dcache.WriteReq_avg_miss_latency::total 23723.255896                       # average WriteReq miss latency
system.cpu0.dcache.LoadLockedReq_avg_miss_latency::switch_cpus0.data 14129.826096                       # average LoadLockedReq miss latency
system.cpu0.dcache.LoadLockedReq_avg_miss_latency::total 14129.826096                       # average LoadLockedReq miss latency
system.cpu0.dcache.StoreCondReq_avg_miss_latency::switch_cpus0.data  4841.828059                       # average StoreCondReq miss latency
system.cpu0.dcache.StoreCondReq_avg_miss_latency::total  4841.828059                       # average StoreCondReq miss latency
system.cpu0.dcache.StoreCondFailReq_avg_miss_latency::switch_cpus0.data          inf                       # average StoreCondFailReq miss latency
system.cpu0.dcache.StoreCondFailReq_avg_miss_latency::total          inf                       # average StoreCondFailReq miss latency
system.cpu0.dcache.demand_avg_miss_latency::switch_cpus0.data 21569.189809                       # average overall miss latency
system.cpu0.dcache.demand_avg_miss_latency::total 21569.189809                       # average overall miss latency
system.cpu0.dcache.overall_avg_miss_latency::switch_cpus0.data 20796.428444                       # average overall miss latency
system.cpu0.dcache.overall_avg_miss_latency::total 20796.428444                       # average overall miss latency
system.cpu0.dcache.blocked_cycles::no_mshrs      4023764                       # number of cycles access was blocked
system.cpu0.dcache.blocked_cycles::no_targets        57347                       # number of cycles access was blocked
system.cpu0.dcache.blocked::no_mshrs           417731                       # number of cycles access was blocked
system.cpu0.dcache.blocked::no_targets           1953                       # number of cycles access was blocked
[...]
system.switch_cpus3.commit.op_class_0::SimdCmp            0      0.00%     61.91% # Class of committed instruction
system.switch_cpus3.commit.op_class_0::SimdCvt            0      0.00%     61.91% # Class of committed instruction
system.switch_cpus3.commit.op_class_0::SimdMisc            0      0.00%     61.91% # Class of committed instruction
system.switch_cpus3.commit.op_class_0::SimdMult            0      0.00%     61.91% # Class of committed instruction
system.switch_cpus3.commit.op_class_0::SimdMultAcc            0      0.00%     61.91% # Class of committed instruction
system.switch_cpus3.commit.op_class_0::SimdShift            0      0.00%     61.91% # Class of committed instruction
system.switch_cpus3.commit.op_class_0::SimdShiftAcc            0      0.00%     61.91% # Class of committed instruction
system.switch_cpus3.commit.op_class_0::SimdSqrt            0      0.00%     61.91% # Class of committed instruction
system.switch_cpus3.commit.op_class_0::SimdFloatAdd            0      0.00%     61.91% # Class of committed instruction
system.switch_cpus3.commit.op_class_0::SimdFloatAlu            0      0.00%     61.91% # Class of committed instruction
system.switch_cpus3.commit.op_class_0::SimdFloatCmp           28      0.00%     61.91% # Class of committed instruction
system.switch_cpus3.commit.op_class_0::SimdFloatCvt           56      0.00%     61.91% # Class of committed instruction
system.switch_cpus3.commit.op_class_0::SimdFloatDiv           28      0.00%     61.91% # Class of committed instruction
system.switch_cpus3.commit.op_class_0::SimdFloatMisc        21637      0.01%     61.91% # Class of committed instruction
system.switch_cpus3.commit.op_class_0::SimdFloatMult            0      0.00%     61.91% # Class of committed instruction
system.switch_cpus3.commit.op_class_0::SimdFloatMultAcc            0      0.00%     61.91% # Class of committed instruction
system.switch_cpus3.commit.op_class_0::SimdFloatSqrt            0      0.00%     61.91% # Class of committed instruction
system.switch_cpus3.commit.op_class_0::MemRead     64091322     19.83%     81.75% # Class of committed instruction
system.switch_cpus3.commit.op_class_0::MemWrite     58987374     18.25%    100.00% # Class of committed instruction
system.switch_cpus3.commit.op_class_0::IprAccess            0      0.00%    100.00% # Class of committed instruction
system.switch_cpus3.commit.op_class_0::InstPrefetch            0      0.00%    100.00% # Class of committed instruction
system.switch_cpus3.commit.op_class_0::total    323166910                       # Class of committed instruction
system.switch_cpus3.commit.bw_lim_events     12438879                       # number cycles where commit BW limit reached
system.switch_cpus3.rob.rob_reads           762460255                       # The number of ROB reads
system.switch_cpus3.rob.rob_writes          856131143                       # The number of ROB writes
system.switch_cpus3.timesIdled                2106240                       # Number of times that the entire CPU went into an idle state and unscheduled itself
system.switch_cpus3.idleCycles               16194616                       # Total number of cycles that the CPU has spent unscheduled due to idling
system.switch_cpus3.quiesceCycles           609391910                       # Total number of cycles that CPU has spent quiesced or waiting for an interrupt
system.switch_cpus3.committedInsts          254351345                       # Number of Instructions Simulated
system.switch_cpus3.committedOps            322056564                       # Number of Ops (including micro ops) Simulated
system.switch_cpus3.cpi                      1.550195                       # CPI: Cycles Per Instruction
system.switch_cpus3.cpi_total                1.550195                       # CPI: Total CPI of All Threads
system.switch_cpus3.ipc                      0.645080                       # IPC: Instructions Per Cycle
system.switch_cpus3.ipc_total                0.645080                       # IPC: Total IPC of All Threads
system.switch_cpus3.int_regfile_reads       410298383                       # number of integer regfile reads
system.switch_cpus3.int_regfile_writes      228445816                       # number of integer regfile writes
system.switch_cpus3.fp_regfile_reads           186693                       # number of floating regfile reads
system.switch_cpus3.fp_regfile_writes           60516                       # number of floating regfile writes
system.switch_cpus3.cc_regfile_reads       1332385623                       # number of cc regfile reads
system.switch_cpus3.cc_regfile_writes       144834682                       # number of cc regfile writes
system.switch_cpus3.misc_regfile_reads      785812853                       # number of misc regfile reads
system.switch_cpus3.misc_regfile_writes       5212921                       # number of misc regfile writes
system.tol2bus.snoop_filter.tot_requests     71883203                       # Total number of requests made to the snoop filter.
system.tol2bus.snoop_filter.hit_single_requests     34988718                       # Number of requests hitting in the snoop filter with a single holder of the requested data.
system.tol2bus.snoop_filter.hit_multi_requests      9851137                       # Number of requests hitting in the snoop filter with multiple (>1) holders of the requested data.
system.tol2bus.snoop_filter.tot_snoops          43933                       # Total number of snoops made to the snoop filter.
system.tol2bus.snoop_filter.hit_single_snoops        42348                       # Number of snoops hitting in the snoop filter with a single holder of the requested data.
system.tol2bus.snoop_filter.hit_multi_snoops         1585                       # Number of snoops hitting in the snoop filter with multiple (>1) holders of the requested data.
system.tol2bus.pwrStateResidencyTicks::UNDEFINED 3738257516000                       # Cumulative time (in ticks) in various power states
system.tol2bus.trans_dist::ReadReq            5207327                       # Transaction distribution
system.tol2bus.trans_dist::ReadResp          36341749                       # Transaction distribution
system.tol2bus.trans_dist::WriteReq             10095                       # Transaction distribution
system.tol2bus.trans_dist::WriteResp            10095                       # Transaction distribution
system.tol2bus.trans_dist::WritebackDirty      7251586                       # Transaction distribution
system.tol2bus.trans_dist::WritebackClean     23402241                       # Transaction distribution
system.tol2bus.trans_dist::CleanEvict         4691360                       # Transaction distribution
system.tol2bus.trans_dist::UpgradeReq          439962                       # Transaction distribution
system.tol2bus.trans_dist::SCUpgradeReq        178874                       # Transaction distribution
system.tol2bus.trans_dist::UpgradeResp         618836                       # Transaction distribution
system.tol2bus.trans_dist::SCUpgradeFailReq           35                       # Transaction distribution
system.tol2bus.trans_dist::UpgradeFailResp           35                       # Transaction distribution
system.tol2bus.trans_dist::ReadExReq          3697186                       # Transaction distribution
system.tol2bus.trans_dist::ReadExResp         3697186                       # Transaction distribution
system.tol2bus.trans_dist::ReadCleanReq      23403261                       # Transaction distribution
system.tol2bus.trans_dist::ReadSharedReq      7731163                       # Transaction distribution
system.tol2bus.trans_dist::InvalidateReq         1717                       # Transaction distribution
system.tol2bus.pkt_count_system.cpu0.icache.mem_side::system.l2.cpu_side     21326795                       # Packet count per connected master and slave (bytes)
system.tol2bus.pkt_count_system.cpu0.dcache.mem_side::system.l2.cpu_side     15230672                       # Packet count per connected master and slave (bytes)
system.tol2bus.pkt_count_system.cpu0.itb.walker.dma::system.l2.cpu_side       500944                       # Packet count per connected master and slave (bytes)
system.tol2bus.pkt_count_system.cpu0.dtb.walker.dma::system.l2.cpu_side      1705670                       # Packet count per connected master and slave (bytes)
system.tol2bus.pkt_count_system.cpu1.icache.mem_side::system.l2.cpu_side     23152455                       # Packet count per connected master and slave (bytes)
system.tol2bus.pkt_count_system.cpu1.dcache.mem_side::system.l2.cpu_side       754200                       # Packet count per connected master and slave (bytes)
system.tol2bus.pkt_count_system.cpu1.itb.walker.dma::system.l2.cpu_side       492553                       # Packet count per connected master and slave (bytes)
system.tol2bus.pkt_count_system.cpu1.dtb.walker.dma::system.l2.cpu_side      2712945                       # Packet count per connected master and slave (bytes)
system.tol2bus.pkt_count_system.cpu2.icache.mem_side::system.l2.cpu_side      9758363                       # Packet count per connected master and slave (bytes)
system.tol2bus.pkt_count_system.cpu2.dcache.mem_side::system.l2.cpu_side      6395288                       # Packet count per connected master and slave (bytes)
system.tol2bus.pkt_count_system.cpu2.itb.walker.dma::system.l2.cpu_side       269538                       # Packet count per connected master and slave (bytes)
system.tol2bus.pkt_count_system.cpu2.dtb.walker.dma::system.l2.cpu_side       849084                       # Packet count per connected master and slave (bytes)
system.tol2bus.pkt_count_system.cpu3.icache.mem_side::system.l2.cpu_side     15969997                       # Packet count per connected master and slave (bytes)
system.tol2bus.pkt_count_system.cpu3.dcache.mem_side::system.l2.cpu_side     11209486                       # Packet count per connected master and slave (bytes)
system.tol2bus.pkt_count_system.cpu3.itb.walker.dma::system.l2.cpu_side       398326                       # Packet count per connected master and slave (bytes)
system.tol2bus.pkt_count_system.cpu3.dtb.walker.dma::system.l2.cpu_side      1305241                       # Packet count per connected master and slave (bytes)
system.tol2bus.pkt_count::total             112031557                       # Packet count per connected master and slave (bytes)
system.tol2bus.pkt_size_system.cpu0.icache.mem_side::system.l2.cpu_side    909919936                       # Cumulative packet size per connected master and slave (bytes)
system.tol2bus.pkt_size_system.cpu0.dcache.mem_side::system.l2.cpu_side    497593878                       # Cumulative packet size per connected master and slave (bytes)
system.tol2bus.pkt_size_system.cpu0.itb.walker.dma::system.l2.cpu_side       492484                       # Cumulative packet size per connected master and slave (bytes)
system.tol2bus.pkt_size_system.cpu0.dtb.walker.dma::system.l2.cpu_side      2041560                       # Cumulative packet size per connected master and slave (bytes)
system.tol2bus.pkt_size_system.cpu1.icache.mem_side::system.l2.cpu_side    987837952                       # Cumulative packet size per connected master and slave (bytes)
system.tol2bus.pkt_size_system.cpu1.dcache.mem_side::system.l2.cpu_side     26422553                       # Cumulative packet size per connected master and slave (bytes)
system.tol2bus.pkt_size_system.cpu1.itb.walker.dma::system.l2.cpu_side       978328                       # Cumulative packet size per connected master and slave (bytes)
system.tol2bus.pkt_size_system.cpu1.dtb.walker.dma::system.l2.cpu_side      5339504                       # Cumulative packet size per connected master and slave (bytes)
system.tol2bus.pkt_size_system.cpu2.icache.mem_side::system.l2.cpu_side    416354304                       # Cumulative packet size per connected master and slave (bytes)
system.tol2bus.pkt_size_system.cpu2.dcache.mem_side::system.l2.cpu_side    198359387                       # Cumulative packet size per connected master and slave (bytes)
system.tol2bus.pkt_size_system.cpu2.itb.walker.dma::system.l2.cpu_side       235052                       # Cumulative packet size per connected master and slave (bytes)
system.tol2bus.pkt_size_system.cpu2.dtb.walker.dma::system.l2.cpu_side       995324                       # Cumulative packet size per connected master and slave (bytes)
system.tol2bus.pkt_size_system.cpu3.icache.mem_side::system.l2.cpu_side    681366144                       # Cumulative packet size per connected master and slave (bytes)
system.tol2bus.pkt_size_system.cpu3.dcache.mem_side::system.l2.cpu_side    362517530                       # Cumulative packet size per connected master and slave (bytes)
system.tol2bus.pkt_size_system.cpu3.itb.walker.dma::system.l2.cpu_side       428528                       # Cumulative packet size per connected master and slave (bytes)
system.tol2bus.pkt_size_system.cpu3.dtb.walker.dma::system.l2.cpu_side      1632092                       # Cumulative packet size per connected master and slave (bytes)
system.tol2bus.pkt_size::total             4092514556                       # Cumulative packet size per connected master and slave (bytes)
system.tol2bus.snoops                         4651361                       # Total snoops (count)
system.tol2bus.snoopTraffic                 119429824                       # Total snoop traffic (bytes)
system.tol2bus.snoop_fanout::samples         41817608                       # Request fanout histogram
system.tol2bus.snoop_fanout::mean            0.322947                       # Request fanout histogram
system.tol2bus.snoop_fanout::stdev           0.635281                       # Request fanout histogram
system.tol2bus.snoop_fanout::underflows             0      0.00%      0.00% # Request fanout histogram
system.tol2bus.snoop_fanout::0               31317315     74.89%     74.89% # Request fanout histogram
system.tol2bus.snoop_fanout::1                8217593     19.65%     94.54% # Request fanout histogram
system.tol2bus.snoop_fanout::2                1661540      3.97%     98.51% # Request fanout histogram
system.tol2bus.snoop_fanout::3                 553934      1.32%     99.84% # Request fanout histogram
system.tol2bus.snoop_fanout::4                  39030      0.09%     99.93% # Request fanout histogram
system.tol2bus.snoop_fanout::5                  23633      0.06%     99.99% # Request fanout histogram
system.tol2bus.snoop_fanout::6                   3837      0.01%    100.00% # Request fanout histogram
system.tol2bus.snoop_fanout::7                    726      0.00%    100.00% # Request fanout histogram
system.tol2bus.snoop_fanout::8                      0      0.00%    100.00% # Request fanout histogram
system.tol2bus.snoop_fanout::overflows              0      0.00%    100.00% # Request fanout histogram
system.tol2bus.snoop_fanout::min_value              0                       # Request fanout histogram
system.tol2bus.snoop_fanout::max_value              7                       # Request fanout histogram
system.tol2bus.snoop_fanout::total           41817608                       # Request fanout histogram
system.tol2bus.reqLayer0.occupancy        67325650244                       # Layer occupancy (ticks)
system.tol2bus.reqLayer0.utilization             13.4                       # Layer utilization (%)
system.tol2bus.snoopLayer0.occupancy           345689                       # Layer occupancy (ticks)
system.tol2bus.snoopLayer0.utilization            0.0                       # Layer utilization (%)
system.tol2bus.respLayer0.occupancy       10686524074                       # Layer occupancy (ticks)
system.tol2bus.respLayer0.utilization             2.1                       # Layer utilization (%)
system.tol2bus.respLayer1.occupancy        7896186325                       # Layer occupancy (ticks)
system.tol2bus.respLayer1.utilization             1.6                       # Layer utilization (%)
system.tol2bus.respLayer2.occupancy         378709164                       # Layer occupancy (ticks)
system.tol2bus.respLayer2.utilization             0.1                       # Layer utilization (%)
system.tol2bus.respLayer3.occupancy        1200757161                       # Layer occupancy (ticks)
system.tol2bus.respLayer3.utilization             0.2                       # Layer utilization (%)
system.tol2bus.respLayer4.occupancy       11625723895                       # Layer occupancy (ticks)
system.tol2bus.respLayer4.utilization             2.3                       # Layer utilization (%)
system.tol2bus.respLayer5.occupancy         384503181                       # Layer occupancy (ticks)
system.tol2bus.respLayer5.utilization             0.1                       # Layer utilization (%)
system.tol2bus.respLayer6.occupancy         249981816                       # Layer occupancy (ticks)
system.tol2bus.respLayer6.utilization             0.0                       # Layer utilization (%)
system.tol2bus.respLayer7.occupancy        1390994186                       # Layer occupancy (ticks)
system.tol2bus.respLayer7.utilization             0.3                       # Layer utilization (%)
system.tol2bus.respLayer8.occupancy        4891134850                       # Layer occupancy (ticks)
system.tol2bus.respLayer8.utilization             1.0                       # Layer utilization (%)
system.tol2bus.respLayer9.occupancy        3385017598                       # Layer occupancy (ticks)
system.tol2bus.respLayer9.utilization             0.7                       # Layer utilization (%)
system.tol2bus.respLayer10.occupancy        211249504                       # Layer occupancy (ticks)
system.tol2bus.respLayer10.utilization            0.0                       # Layer utilization (%)
system.tol2bus.respLayer11.occupancy        602984346                       # Layer occupancy (ticks)
system.tol2bus.respLayer11.utilization            0.1                       # Layer utilization (%)
system.tol2bus.respLayer12.occupancy       8002540186                       # Layer occupancy (ticks)
system.tol2bus.respLayer12.utilization            1.6                       # Layer utilization (%)
system.tol2bus.respLayer13.occupancy       5857995486                       # Layer occupancy (ticks)
system.tol2bus.respLayer13.utilization            1.2                       # Layer utilization (%)
system.tol2bus.respLayer14.occupancy        292159498                       # Layer occupancy (ticks)
system.tol2bus.respLayer14.utilization            0.1                       # Layer utilization (%)
system.tol2bus.respLayer15.occupancy        902128281                       # Layer occupancy (ticks)
system.tol2bus.respLayer15.utilization            0.2                       # Layer utilization (%)
system.switch_cpus0.kern.inst.arm                   0                       # number of arm instructions executed
system.switch_cpus0.kern.inst.quiesce               0                       # number of quiesce instructions executed
system.switch_cpus1.kern.inst.arm                   0                       # number of arm instructions executed
system.switch_cpus1.kern.inst.quiesce               0                       # number of quiesce instructions executed
system.switch_cpus2.kern.inst.arm                   0                       # number of arm instructions executed
system.switch_cpus2.kern.inst.quiesce               0                       # number of quiesce instructions executed
system.switch_cpus3.kern.inst.arm                   0                       # number of arm instructions executed
system.switch_cpus3.kern.inst.quiesce               0                       # number of quiesce instructions executed

---------- End Simulation Statistics   ----------
