
---------- Begin Simulation Statistics ----------
sim_seconds                                  0.501783                       # Number of seconds simulated
sim_ticks                                501783126500                       # Number of ticks simulated
final_tick                               3738198817000                       # Number of ticks from beginning of simulation (restored from checkpoints and never reset)
sim_freq                                 1000000000000                       # Frequency of simulated ticks
host_inst_rate                                 106408                       # Simulator instruction rate (inst/s)
host_op_rate                                   126063                       # Simulator op (including micro ops) rate (op/s)
host_tick_rate                               48607704                       # Simulator tick rate (ticks/s)
host_mem_usage                                2652660                       # Number of bytes of host memory used
host_seconds                                 10323.12                       # Real time elapsed on the host
sim_insts                                  1098459285                       # Number of instructions simulated
sim_ops                                    1301359753                       # Number of ops (including micro ops) simulated
system.voltage_domain.voltage                       1                       # Voltage in Volts
system.clk_domain.clock                          1000                       # Clock period in ticks
system.mem_ctrls.pwrStateResidencyTicks::UNDEFINED 3738198817000                       # Cumulative time (in ticks) in various power states
system.mem_ctrls.bytes_read::switch_cpus0.dtb.walker        86080                       # Number of bytes read from this memory
system.mem_ctrls.bytes_read::switch_cpus0.itb.walker        44992                       # Number of bytes read from this memory
system.mem_ctrls.bytes_read::switch_cpus0.inst     10886528                       # Number of bytes read from this memory
system.mem_ctrls.bytes_read::switch_cpus0.data     27708096                       # Number of bytes read from this memory
system.mem_ctrls.bytes_read::switch_cpus1.dtb.walker        75904                       # Number of bytes read from this memory
system.mem_ctrls.bytes_read::switch_cpus1.itb.walker         5056                       # Number of bytes read from this memory
system.mem_ctrls.bytes_read::switch_cpus1.inst       488128                       # Number of bytes read from this memory
system.mem_ctrls.bytes_read::switch_cpus1.data    246371136                       # Number of bytes read from this memory
system.mem_ctrls.bytes_read::switch_cpus2.dtb.walker       112192                       # Number of bytes read from this memory
system.mem_ctrls.bytes_read::switch_cpus2.itb.walker        79104                       # Number of bytes read from this memory
system.mem_ctrls.bytes_read::switch_cpus2.inst      4627776                       # Number of bytes read from this memory
system.mem_ctrls.bytes_read::switch_cpus2.data     27407616                       # Number of bytes read from this memory
system.mem_ctrls.bytes_read::switch_cpus3.dtb.walker        81600                       # Number of bytes read from this memory
system.mem_ctrls.bytes_read::switch_cpus3.itb.walker        49856                       # Number of bytes read from this memory
system.mem_ctrls.bytes_read::switch_cpus3.inst     21198080                       # Number of bytes read from this memory
system.mem_ctrls.bytes_read::switch_cpus3.data     62139712                       # Number of bytes read from this memory
system.mem_ctrls.bytes_read::total          401361856                       # Number of bytes read from this memory
system.mem_ctrls.bytes_inst_read::switch_cpus0.inst     10886528                       # Number of instructions bytes read from this memory
system.mem_ctrls.bytes_inst_read::switch_cpus1.inst       488128                       # Number of instructions bytes read from this memory
system.mem_ctrls.bytes_inst_read::switch_cpus2.inst      4627776                       # Number of instructions bytes read from this memory
system.mem_ctrls.bytes_inst_read::switch_cpus3.inst     21198080                       # Number of instructions bytes read from this memory
system.mem_ctrls.bytes_inst_read::total      37200512                       # Number of instructions bytes read from this memory
system.mem_ctrls.bytes_written::writebacks    136583424                       # Number of bytes written to this memory
system.mem_ctrls.bytes_written::total       136583424                       # Number of bytes written to this memory
system.mem_ctrls.num_reads::switch_cpus0.dtb.walker         1345                       # Number of read requests responded to by this memory
system.mem_ctrls.num_reads::switch_cpus0.itb.walker          703                       # Number of read requests responded to by this memory
system.mem_ctrls.num_reads::switch_cpus0.inst       170102                       # Number of read requests responded to by this memory
system.mem_ctrls.num_reads::switch_cpus0.data       432939                       # Number of read requests responded to by this memory
system.mem_ctrls.num_reads::switch_cpus1.dtb.walker         1186                       # Number of read requests responded to by this memory
system.mem_ctrls.num_reads::switch_cpus1.itb.walker           79                       # Number of read requests responded to by this memory
system.mem_ctrls.num_reads::switch_cpus1.inst         7627                       # Number of read requests responded to by this memory
system.mem_ctrls.num_reads::switch_cpus1.data      3849549                       # Number of read requests responded to by this memory
system.mem_ctrls.num_reads::switch_cpus2.dtb.walker         1753                       # Number of read requests responded to by this memory
system.mem_ctrls.num_reads::switch_cpus2.itb.walker         1236                       # Number of read requests responded to by this memory
system.mem_ctrls.num_reads::switch_cpus2.inst        72309                       # Number of read requests responded to by this memory
system.mem_ctrls.num_reads::switch_cpus2.data       428244                       # Number of read requests responded to by this memory
system.mem_ctrls.num_reads::switch_cpus3.dtb.walker         1275                       # Number of read requests responded to by this memory
system.mem_ctrls.num_reads::switch_cpus3.itb.walker          779                       # Number of read requests responded to by this memory
system.mem_ctrls.num_reads::switch_cpus3.inst       331220                       # Number of read requests responded to by this memory
system.mem_ctrls.num_reads::switch_cpus3.data       970933                       # Number of read requests responded to by this memory
system.mem_ctrls.num_reads::total             6271279                       # Number of read requests responded to by this memory
system.mem_ctrls.num_writes::writebacks       2134116                       # Number of write requests responded to by this memory
system.mem_ctrls.num_writes::total            2134116                       # Number of write requests responded to by this memory
system.mem_ctrls.bw_read::switch_cpus0.dtb.walker       171548                       # Total read bandwidth from this memory (bytes/s)
system.mem_ctrls.bw_read::switch_cpus0.itb.walker        89664                       # Total read bandwidth from this memory (bytes/s)
system.mem_ctrls.bw_read::switch_cpus0.inst     21695684                       # Total read bandwidth from this memory (bytes/s)
system.mem_ctrls.bw_read::switch_cpus0.data     55219266                       # Total read bandwidth from this memory (bytes/s)
system.mem_ctrls.bw_read::switch_cpus1.dtb.walker       151269                       # Total read bandwidth from this memory (bytes/s)
system.mem_ctrls.bw_read::switch_cpus1.itb.walker        10076                       # Total read bandwidth from this memory (bytes/s)
system.mem_ctrls.bw_read::switch_cpus1.inst       972787                       # Total read bandwidth from this memory (bytes/s)
system.mem_ctrls.bw_read::switch_cpus1.data    490991273                       # Total read bandwidth from this memory (bytes/s)
system.mem_ctrls.bw_read::switch_cpus2.dtb.walker       223587                       # Total read bandwidth from this memory (bytes/s)
system.mem_ctrls.bw_read::switch_cpus2.itb.walker       157646                       # Total read bandwidth from this memory (bytes/s)
system.mem_ctrls.bw_read::switch_cpus2.inst      9222662                       # Total read bandwidth from this memory (bytes/s)
system.mem_ctrls.bw_read::switch_cpus2.data     54620442                       # Total read bandwidth from this memory (bytes/s)
system.mem_ctrls.bw_read::switch_cpus3.dtb.walker       162620                       # Total read bandwidth from this memory (bytes/s)
system.mem_ctrls.bw_read::switch_cpus3.itb.walker        99358                       # Total read bandwidth from this memory (bytes/s)
system.mem_ctrls.bw_read::switch_cpus3.inst     42245502                       # Total read bandwidth from this memory (bytes/s)
system.mem_ctrls.bw_read::switch_cpus3.data    123837787                       # Total read bandwidth from this memory (bytes/s)
system.mem_ctrls.bw_read::total             799871169                       # Total read bandwidth from this memory (bytes/s)
system.mem_ctrls.bw_inst_read::switch_cpus0.inst     21695684                       # Instruction read bandwidth from this memory (bytes/s)
system.mem_ctrls.bw_inst_read::switch_cpus1.inst       972787                       # Instruction read bandwidth from this memory (bytes/s)
system.mem_ctrls.bw_inst_read::switch_cpus2.inst      9222662                       # Instruction read bandwidth from this memory (bytes/s)
system.mem_ctrls.bw_inst_read::switch_cpus3.inst     42245502                       # Instruction read bandwidth from this memory (bytes/s)
system.mem_ctrls.bw_inst_read::total         74136634                       # Instruction read bandwidth from this memory (bytes/s)
system.mem_ctrls.bw_write::writebacks       272196128                       # Write bandwidth from this memory (bytes/s)
system.mem_ctrls.bw_write::total            272196128                       # Write bandwidth from this memory (bytes/s)
system.mem_ctrls.bw_total::writebacks       272196128                       # Total bandwidth to/from this memory (bytes/s)
system.mem_ctrls.bw_total::switch_cpus0.dtb.walker       171548                       # Total bandwidth to/from this memory (bytes/s)
system.mem_ctrls.bw_total::switch_cpus0.itb.walker        89664                       # Total bandwidth to/from this memory (bytes/s)
system.mem_ctrls.bw_total::switch_cpus0.inst     21695684                       # Total bandwidth to/from this memory (bytes/s)
system.mem_ctrls.bw_total::switch_cpus0.data     55219266                       # Total bandwidth to/from this memory (bytes/s)
system.mem_ctrls.bw_total::switch_cpus1.dtb.walker       151269                       # Total bandwidth to/from this memory (bytes/s)
system.mem_ctrls.bw_total::switch_cpus1.itb.walker        10076                       # Total bandwidth to/from this memory (bytes/s)
system.mem_ctrls.bw_total::switch_cpus1.inst       972787                       # Total bandwidth to/from this memory (bytes/s)
system.mem_ctrls.bw_total::switch_cpus1.data    490991273                       # Total bandwidth to/from this memory (bytes/s)
system.mem_ctrls.bw_total::switch_cpus2.dtb.walker       223587                       # Total bandwidth to/from this memory (bytes/s)
system.mem_ctrls.bw_total::switch_cpus2.itb.walker       157646                       # Total bandwidth to/from this memory (bytes/s)
system.mem_ctrls.bw_total::switch_cpus2.inst      9222662                       # Total bandwidth to/from this memory (bytes/s)
system.mem_ctrls.bw_total::switch_cpus2.data     54620442                       # Total bandwidth to/from this memory (bytes/s)
system.mem_ctrls.bw_total::switch_cpus3.dtb.walker       162620                       # Total bandwidth to/from this memory (bytes/s)
system.mem_ctrls.bw_total::switch_cpus3.itb.walker        99358                       # Total bandwidth to/from this memory (bytes/s)
system.mem_ctrls.bw_total::switch_cpus3.inst     42245502                       # Total bandwidth to/from this memory (bytes/s)
system.mem_ctrls.bw_total::switch_cpus3.data    123837787                       # Total bandwidth to/from this memory (bytes/s)
system.mem_ctrls.bw_total::total           1072067297                       # Total bandwidth to/from this memory (bytes/s)
system.mem_ctrls.readReqs                     6271280                       # Number of read requests accepted
system.mem_ctrls.writeReqs                    2134116                       # Number of write requests accepted
system.mem_ctrls.readBursts                   6271280                       # Number of DRAM read bursts, including those serviced by the write queue
system.mem_ctrls.writeBursts                  2134116                       # Number of DRAM write bursts, including those merged in the write queue
system.mem_ctrls.bytesReadDRAM              400852864                       # Total number of bytes read from DRAM
system.mem_ctrls.bytesReadWrQ                  509056                       # Total number of bytes read from write queue
system.mem_ctrls.bytesWritten               136582208                       # Total number of bytes written to DRAM
system.mem_ctrls.bytesReadSys               401361920                       # Total read bytes from the system interface side
system.mem_ctrls.bytesWrittenSys            136583424                       # Total written bytes from the system interface side
system.mem_ctrls.servicedByWrQ                   7954                       # Number of DRAM read bursts serviced by the write queue
system.mem_ctrls.mergedWrBursts                     0                       # Number of DRAM write bursts merged with an existing one
system.mem_ctrls.neitherReadNorWriteReqs            0                       # Number of requests that are neither read nor write
system.mem_ctrls.perBankRdBursts::0            274114                       # Per bank write bursts
system.mem_ctrls.perBankRdBursts::1            319469                       # Per bank write bursts
system.mem_ctrls.perBankRdBursts::2            268370                       # Per bank write bursts
system.mem_ctrls.perBankRdBursts::3            291695                       # Per bank write bursts
system.mem_ctrls.perBankRdBursts::4            402359                       # Per bank write bursts
system.mem_ctrls.perBankRdBursts::5            347459                       # Per bank write bursts
system.mem_ctrls.perBankRdBursts::6            381806                       # Per bank write bursts
system.mem_ctrls.perBankRdBursts::7            474027                       # Per bank write bursts
system.mem_ctrls.perBankRdBursts::8            434565                       # Per bank write bursts
system.mem_ctrls.perBankRdBursts::9            526713                       # Per bank write bursts
system.mem_ctrls.perBankRdBursts::10           576018                       # Per bank write bursts
system.mem_ctrls.perBankRdBursts::11           527907                       # Per bank write bursts
system.mem_ctrls.perBankRdBursts::12           351983                       # Per bank write bursts
system.mem_ctrls.perBankRdBursts::13           337633                       # Per bank write bursts
system.mem_ctrls.perBankRdBursts::14           416479                       # Per bank write bursts
system.mem_ctrls.perBankRdBursts::15           332729                       # Per bank write bursts
system.mem_ctrls.perBankWrBursts::0             99599                       # Per bank write bursts
system.mem_ctrls.perBankWrBursts::1            116021                       # Per bank write bursts
system.mem_ctrls.perBankWrBursts::2             85215                       # Per bank write bursts
system.mem_ctrls.perBankWrBursts::3             93778                       # Per bank write bursts
system.mem_ctrls.perBankWrBursts::4            133311                       # Per bank write bursts
system.mem_ctrls.perBankWrBursts::5            116873                       # Per bank write bursts
system.mem_ctrls.perBankWrBursts::6            126043                       # Per bank write bursts
system.mem_ctrls.perBankWrBursts::7            153900                       # Per bank write bursts
system.mem_ctrls.perBankWrBursts::8            159011                       # Per bank write bursts
system.mem_ctrls.perBankWrBursts::9            153092                       # Per bank write bursts
system.mem_ctrls.perBankWrBursts::10           172885                       # Per bank write bursts
system.mem_ctrls.perBankWrBursts::11           188269                       # Per bank write bursts
system.mem_ctrls.perBankWrBursts::12           117744                       # Per bank write bursts
system.mem_ctrls.perBankWrBursts::13           139960                       # Per bank write bursts
system.mem_ctrls.perBankWrBursts::14           159787                       # Per bank write bursts
system.mem_ctrls.perBankWrBursts::15           118609                       # Per bank write bursts
system.mem_ctrls.numRdRetry                         0                       # Number of times read queue was full causing retry
system.mem_ctrls.numWrRetry                         8                       # Number of times write queue was full causing retry
system.mem_ctrls.totGap                  501783202500                       # Total gap between requests
system.mem_ctrls.readPktSize::0                     0                       # Read request sizes (log2)
system.mem_ctrls.readPktSize::1                     0                       # Read request sizes (log2)
system.mem_ctrls.readPktSize::2                     0                       # Read request sizes (log2)
system.mem_ctrls.readPktSize::3                     0                       # Read request sizes (log2)
system.mem_ctrls.readPktSize::4                     0                       # Read request sizes (log2)
system.mem_ctrls.readPktSize::5                     0                       # Read request sizes (log2)
system.mem_ctrls.readPktSize::6               6271280                       # Read request sizes (log2)
system.mem_ctrls.writePktSize::0                    0                       # Write request sizes (log2)
system.mem_ctrls.writePktSize::1                    0                       # Write request sizes (log2)
system.mem_ctrls.writePktSize::2                    0                       # Write request sizes (log2)
system.mem_ctrls.writePktSize::3                    0                       # Write request sizes (log2)
system.mem_ctrls.writePktSize::4                    0                       # Write request sizes (log2)
system.mem_ctrls.writePktSize::5                    0                       # Write request sizes (log2)
system.mem_ctrls.writePktSize::6              2134116                       # Write request sizes (log2)
system.mem_ctrls.rdQLenPdf::0                 3184430                       # What read queue length does an incoming req see
system.mem_ctrls.rdQLenPdf::1                 2123470                       # What read queue length does an incoming req see
system.mem_ctrls.rdQLenPdf::2                  637347                       # What read queue length does an incoming req see
system.mem_ctrls.rdQLenPdf::3                  224948                       # What read queue length does an incoming req see
system.mem_ctrls.rdQLenPdf::4                   64609                       # What read queue length does an incoming req see
system.mem_ctrls.rdQLenPdf::5                   20585                       # What read queue length does an incoming req see
system.mem_ctrls.rdQLenPdf::6                    5477                       # What read queue length does an incoming req see
system.mem_ctrls.rdQLenPdf::7                    1937                       # What read queue length does an incoming req see
system.mem_ctrls.rdQLenPdf::8                     380                       # What read queue length does an incoming req see
system.mem_ctrls.rdQLenPdf::9                     113                       # What read queue length does an incoming req see
system.mem_ctrls.rdQLenPdf::10                     26                       # What read queue length does an incoming req see
system.mem_ctrls.rdQLenPdf::11                      4                       # What read queue length does an incoming req see
system.mem_ctrls.rdQLenPdf::12                      0                       # What read queue length does an incoming req see
system.mem_ctrls.rdQLenPdf::13                      0                       # What read queue length does an incoming req see
system.mem_ctrls.rdQLenPdf::14                      0                       # What read queue length does an incoming req see
system.mem_ctrls.rdQLenPdf::15                      0                       # What read queue length does an incoming req see
system.mem_ctrls.rdQLenPdf::16                      0                       # What read queue length does an incoming req see
system.mem_ctrls.rdQLenPdf::17                      0                       # What read queue length does an incoming req see
system.mem_ctrls.rdQLenPdf::18                      0                       # What read queue length does an incoming req see
system.mem_ctrls.rdQLenPdf::19                      0                       # What read queue length does an incoming req see
system.mem_ctrls.rdQLenPdf::20                      0                       # What read queue length does an incoming req see
system.mem_ctrls.rdQLenPdf::21                      0                       # What read queue length does an incoming req see
system.mem_ctrls.rdQLenPdf::22                      0                       # What read queue length does an incoming req see
system.mem_ctrls.rdQLenPdf::23                      0                       # What read queue length does an incoming req see
system.mem_ctrls.rdQLenPdf::24                      0                       # What read queue length does an incoming req see
system.mem_ctrls.rdQLenPdf::25                      0                       # What read queue length does an incoming req see
system.mem_ctrls.rdQLenPdf::26                      0                       # What read queue length does an incoming req see
system.mem_ctrls.rdQLenPdf::27                      0                       # What read queue length does an incoming req see
system.mem_ctrls.rdQLenPdf::28                      0                       # What read queue length does an incoming req see
system.mem_ctrls.rdQLenPdf::29                      0                       # What read queue length does an incoming req see
system.mem_ctrls.rdQLenPdf::30                      0                       # What read queue length does an incoming req see
system.mem_ctrls.rdQLenPdf::31                      0                       # What read queue length does an incoming req see
system.mem_ctrls.wrQLenPdf::0                       0                       # What write queue length does an incoming req see
system.mem_ctrls.wrQLenPdf::1                       0                       # What write queue length does an incoming req see
system.mem_ctrls.wrQLenPdf::2                       1                       # What write queue length does an incoming req see
system.mem_ctrls.wrQLenPdf::3                       1                       # What write queue length does an incoming req see
system.mem_ctrls.wrQLenPdf::4                       1                       # What write queue length does an incoming req see
system.mem_ctrls.wrQLenPdf::5                       1                       # What write queue length does an incoming req see
system.mem_ctrls.wrQLenPdf::6                       1                       # What write queue length does an incoming req see
system.mem_ctrls.wrQLenPdf::7                       1                       # What write queue length does an incoming req see
system.mem_ctrls.wrQLenPdf::8                       1                       # What write queue length does an incoming req see
system.mem_ctrls.wrQLenPdf::9                       1                       # What write queue length does an incoming req see
system.mem_ctrls.wrQLenPdf::10                      1                       # What write queue length does an incoming req see
system.mem_ctrls.wrQLenPdf::11                      1                       # What write queue length does an incoming req see
system.mem_ctrls.wrQLenPdf::12                      1                       # What write queue length does an incoming req see
system.mem_ctrls.wrQLenPdf::13                      1                       # What write queue length does an incoming req see
system.mem_ctrls.wrQLenPdf::14                      1                       # What write queue length does an incoming req see
system.mem_ctrls.wrQLenPdf::15                  15821                       # What write queue length does an incoming req see
system.mem_ctrls.wrQLenPdf::16                  17995                       # What write queue length does an incoming req see
system.mem_ctrls.wrQLenPdf::17                  83432                       # What write queue length does an incoming req see
system.mem_ctrls.wrQLenPdf::18                 117635                       # What write queue length does an incoming req see
system.mem_ctrls.wrQLenPdf::19                 128526                       # What write queue length does an incoming req see
system.mem_ctrls.wrQLenPdf::20                 132857                       # What write queue length does an incoming req see
system.mem_ctrls.wrQLenPdf::21                 134415                       # What write queue length does an incoming req see
system.mem_ctrls.wrQLenPdf::22                 134616                       # What write queue length does an incoming req see
system.mem_ctrls.wrQLenPdf::23                 135657                       # What write queue length does an incoming req see
system.mem_ctrls.wrQLenPdf::24                 135969                       # What write queue length does an incoming req see
system.mem_ctrls.wrQLenPdf::25                 136978                       # What write queue length does an incoming req see
system.mem_ctrls.wrQLenPdf::26                 137241                       # What write queue length does an incoming req see
system.mem_ctrls.wrQLenPdf::27                 136823                       # What write queue length does an incoming req see
system.mem_ctrls.wrQLenPdf::28                 138558                       # What write queue length does an incoming req see
system.mem_ctrls.wrQLenPdf::29                 140210                       # What write queue length does an incoming req see
system.mem_ctrls.wrQLenPdf::30                 135679                       # What write queue length does an incoming req see
system.mem_ctrls.wrQLenPdf::31                 135595                       # What write queue length does an incoming req see
system.mem_ctrls.wrQLenPdf::32                 131492                       # What write queue length does an incoming req see
system.mem_ctrls.wrQLenPdf::33                   1171                       # What write queue length does an incoming req see
system.mem_ctrls.wrQLenPdf::34                    484                       # What write queue length does an incoming req see
system.mem_ctrls.wrQLenPdf::35                    308                       # What write queue length does an incoming req see
system.mem_ctrls.wrQLenPdf::36                    202                       # What write queue length does an incoming req see
system.mem_ctrls.wrQLenPdf::37                    171                       # What write queue length does an incoming req see
system.mem_ctrls.wrQLenPdf::38                    153                       # What write queue length does an incoming req see
system.mem_ctrls.wrQLenPdf::39                    132                       # What write queue length does an incoming req see
system.mem_ctrls.wrQLenPdf::40                    128                       # What write queue length does an incoming req see
system.mem_ctrls.wrQLenPdf::41                    128                       # What write queue length does an incoming req see
system.mem_ctrls.wrQLenPdf::42                    121                       # What write queue length does an incoming req see
system.mem_ctrls.wrQLenPdf::43                    109                       # What write queue length does an incoming req see
system.mem_ctrls.wrQLenPdf::44                     98                       # What write queue length does an incoming req see
system.mem_ctrls.wrQLenPdf::45                     75                       # What write queue length does an incoming req see
system.mem_ctrls.wrQLenPdf::46                    114                       # What write queue length does an incoming req see
system.mem_ctrls.wrQLenPdf::47                     88                       # What write queue length does an incoming req see
system.mem_ctrls.wrQLenPdf::48                     83                       # What write queue length does an incoming req see
system.mem_ctrls.wrQLenPdf::49                    110                       # What write queue length does an incoming req see
system.mem_ctrls.wrQLenPdf::50                     90                       # What write queue length does an incoming req see
system.mem_ctrls.wrQLenPdf::51                    107                       # What write queue length does an incoming req see
system.mem_ctrls.wrQLenPdf::52                     93                       # What write queue length does an incoming req see
system.mem_ctrls.wrQLenPdf::53                     78                       # What write queue length does an incoming req see
system.mem_ctrls.wrQLenPdf::54                     85                       # What write queue length does an incoming req see
system.mem_ctrls.wrQLenPdf::55                     78                       # What write queue length does an incoming req see
system.mem_ctrls.wrQLenPdf::56                     74                       # What write queue length does an incoming req see
system.mem_ctrls.wrQLenPdf::57                     81                       # What write queue length does an incoming req see
system.mem_ctrls.wrQLenPdf::58                     58                       # What write queue length does an incoming req see
system.mem_ctrls.wrQLenPdf::59                     58                       # What write queue length does an incoming req see
system.mem_ctrls.wrQLenPdf::60                     47                       # What write queue length does an incoming req see
system.mem_ctrls.wrQLenPdf::61                     35                       # What write queue length does an incoming req see
system.mem_ctrls.wrQLenPdf::62                     21                       # What write queue length does an incoming req see
system.mem_ctrls.wrQLenPdf::63                     24                       # What write queue length does an incoming req see
system.mem_ctrls.bytesPerActivate::samples      5240857                       # Bytes accessed per row activation
system.mem_ctrls.bytesPerActivate::mean    102.547027                       # Bytes accessed per row activation
system.mem_ctrls.bytesPerActivate::gmean    79.225523                       # Bytes accessed per row activation
system.mem_ctrls.bytesPerActivate::stdev   135.866484                       # Bytes accessed per row activation
system.mem_ctrls.bytesPerActivate::0-127      4319476     82.42%     82.42% # Bytes accessed per row activation
system.mem_ctrls.bytesPerActivate::128-255       599371     11.44%     93.86% # Bytes accessed per row activation
system.mem_ctrls.bytesPerActivate::256-383       118401      2.26%     96.11% # Bytes accessed per row activation
system.mem_ctrls.bytesPerActivate::384-511        56190      1.07%     97.19% # Bytes accessed per row activation
system.mem_ctrls.bytesPerActivate::512-639        36019      0.69%     97.87% # Bytes accessed per row activation
system.mem_ctrls.bytesPerActivate::640-767        23444      0.45%     98.32% # Bytes accessed per row activation
system.mem_ctrls.bytesPerActivate::768-895        17892      0.34%     98.66% # Bytes accessed per row activation
system.mem_ctrls.bytesPerActivate::896-1023        13768      0.26%     98.93% # Bytes accessed per row activation
system.mem_ctrls.bytesPerActivate::1024-1151        56296      1.07%    100.00% # Bytes accessed per row activation
system.mem_ctrls.bytesPerActivate::total      5240857                       # Bytes accessed per row activation
system.mem_ctrls.rdPerTurnAround::samples       130046                       # Reads before turning the bus around for writes
system.mem_ctrls.rdPerTurnAround::mean      48.271873                       # Reads before turning the bus around for writes
system.mem_ctrls.rdPerTurnAround::stdev     52.583674                       # Reads before turning the bus around for writes
system.mem_ctrls.rdPerTurnAround::0-1023       130044    100.00%    100.00% # Reads before turning the bus around for writes
system.mem_ctrls.rdPerTurnAround::1024-2047            1      0.00%    100.00% # Reads before turning the bus around for writes
system.mem_ctrls.rdPerTurnAround::16384-17407            1      0.00%    100.00% # Reads before turning the bus around for writes
system.mem_ctrls.rdPerTurnAround::total        130046                       # Reads before turning the bus around for writes
system.mem_ctrls.wrPerTurnAround::samples       130046                       # Writes before turning the bus around for reads
system.mem_ctrls.wrPerTurnAround::mean      16.410324                       # Writes before turning the bus around for reads
system.mem_ctrls.wrPerTurnAround::gmean     16.340725                       # Writes before turning the bus around for reads
system.mem_ctrls.wrPerTurnAround::stdev      2.345307                       # Writes before turning the bus around for reads
system.mem_ctrls.wrPerTurnAround::16-19        128729     98.99%     98.99% # Writes before turning the bus around for reads
system.mem_ctrls.wrPerTurnAround::20-23           792      0.61%     99.60% # Writes before turning the bus around for reads
system.mem_ctrls.wrPerTurnAround::24-27            47      0.04%     99.63% # Writes before turning the bus around for reads
system.mem_ctrls.wrPerTurnAround::28-31            60      0.05%     99.68% # Writes before turning the bus around for reads
system.mem_ctrls.wrPerTurnAround::32-35           177      0.14%     99.81% # Writes before turning the bus around for reads
system.mem_ctrls.wrPerTurnAround::36-39            46      0.04%     99.85% # Writes before turning the bus around for reads
system.mem_ctrls.wrPerTurnAround::40-43            23      0.02%     99.87% # Writes before turning the bus around for reads
system.mem_ctrls.wrPerTurnAround::44-47            13      0.01%     99.88% # Writes before turning the bus around for reads
system.mem_ctrls.wrPerTurnAround::48-51            22      0.02%     99.89% # Writes before turning the bus around for reads
system.mem_ctrls.wrPerTurnAround::52-55             8      0.01%     99.90% # Writes before turning the bus around for reads
system.mem_ctrls.wrPerTurnAround::56-59            10      0.01%     99.91% # Writes before turning the bus around for reads
system.mem_ctrls.wrPerTurnAround::60-63            13      0.01%     99.92% # Writes before turning the bus around for reads
system.mem_ctrls.wrPerTurnAround::64-67            69      0.05%     99.97% # Writes before turning the bus around for reads
system.mem_ctrls.wrPerTurnAround::68-71             1      0.00%     99.97% # Writes before turning the bus around for reads
system.mem_ctrls.wrPerTurnAround::72-75             4      0.00%     99.98% # Writes before turning the bus around for reads
system.mem_ctrls.wrPerTurnAround::76-79             6      0.00%     99.98% # Writes before turning the bus around for reads
system.mem_ctrls.wrPerTurnAround::80-83             4      0.00%     99.98% # Writes before turning the bus around for reads
system.mem_ctrls.wrPerTurnAround::84-87             1      0.00%     99.98% # Writes before turning the bus around for reads
system.mem_ctrls.wrPerTurnAround::92-95             1      0.00%     99.98% # Writes before turning the bus around for reads
system.mem_ctrls.wrPerTurnAround::96-99             2      0.00%     99.99% # Writes before turning the bus around for reads
system.mem_ctrls.wrPerTurnAround::100-103            1      0.00%     99.99% # Writes before turning the bus around for reads
system.mem_ctrls.wrPerTurnAround::104-107            1      0.00%     99.99% # Writes before turning the bus around for reads
system.mem_ctrls.wrPerTurnAround::108-111            6      0.00%     99.99% # Writes before turning the bus around for reads
system.mem_ctrls.wrPerTurnAround::124-127            2      0.00%     99.99% # Writes before turning the bus around for reads
system.mem_ctrls.wrPerTurnAround::128-131            4      0.00%    100.00% # Writes before turning the bus around for reads
system.mem_ctrls.wrPerTurnAround::144-147            4      0.00%    100.00% # Writes before turning the bus around for reads
system.mem_ctrls.wrPerTurnAround::total        130046                       # Writes before turning the bus around for reads
system.mem_ctrls.totQLat                 165413389751                       # Total ticks spent queuing
system.mem_ctrls.totMemAccLat            282850752251                       # Total ticks spent from burst creation until serviced by the DRAM
system.mem_ctrls.totBusLat                31316630000                       # Total ticks spent in databus transfers
system.mem_ctrls.avgQLat                     26409.83                       # Average queueing delay per DRAM burst
system.mem_ctrls.avgBusLat                    5000.00                       # Average bus latency per DRAM burst
system.mem_ctrls.avgMemAccLat                45159.83                       # Average memory access latency per DRAM burst
system.mem_ctrls.avgRdBW                       798.86                       # Average DRAM read bandwidth in MiByte/s
system.mem_ctrls.avgWrBW                       272.19                       # Average achieved write bandwidth in MiByte/s
system.mem_ctrls.avgRdBWSys                    799.87                       # Average system read bandwidth in MiByte/s
system.mem_ctrls.avgWrBWSys                    272.20                       # Average system write bandwidth in MiByte/s
system.mem_ctrls.peakBW                      12800.00                       # Theoretical peak bandwidth in MiByte/s
system.mem_ctrls.busUtil                         8.37                       # Data bus utilization in percentage
system.mem_ctrls.busUtilRead                     6.24                       # Data bus utilization in percentage for reads
system.mem_ctrls.busUtilWrite                    2.13                       # Data bus utilization in percentage for writes
system.mem_ctrls.avgRdQLen                       1.55                       # Average read queue length when enqueuing
system.mem_ctrls.avgWrQLen                      25.46                       # Average write queue length when enqueuing
system.mem_ctrls.readRowHits                  2407100                       # Number of row buffer hits during reads
system.mem_ctrls.writeRowHits                  749460                       # Number of row buffer hits during writes
system.mem_ctrls.readRowHitRate                 38.43                       # Row buffer hit rate for reads
system.mem_ctrls.writeRowHitRate                35.12                       # Row buffer hit rate for writes
system.mem_ctrls.avgGap                      59697.75                       # Average gap between requests
system.mem_ctrls.pageHitRate                    37.59                       # Row buffer hit rate, read and write combined
system.mem_ctrls_0.actEnergy              17376780960                       # Energy for activate commands per rank (pJ)
system.mem_ctrls_0.preEnergy               9481378500                       # Energy for precharge commands per rank (pJ)
system.mem_ctrls_0.readEnergy             21575041800                       # Energy for read commands per rank (pJ)
system.mem_ctrls_0.writeEnergy             5992114320                       # Energy for write commands per rank (pJ)
system.mem_ctrls_0.refreshEnergy          32809748400                       # Energy for refresh commands per rank (pJ)
system.mem_ctrls_0.actBackEnergy         311597267040                       # Energy for active background per rank (pJ)
system.mem_ctrls_0.preBackEnergy          28067199750                       # Energy for precharge background per rank (pJ)
system.mem_ctrls_0.totalEnergy           426899530770                       # Total energy per rank (pJ)
system.mem_ctrls_0.averagePower            849.838430                       # Core power per rank (mW)
system.mem_ctrls_0.memoryStateTime::IDLE  44780757000                       # Time in different power states
system.mem_ctrls_0.memoryStateTime::REF   16755440000                       # Time in different power states
system.mem_ctrls_0.memoryStateTime::PRE_PDN            0                       # Time in different power states
system.mem_ctrls_0.memoryStateTime::ACT  440240946000                       # Time in different power states
system.mem_ctrls_0.memoryStateTime::ACT_PDN            0                       # Time in different power states
system.mem_ctrls_1.actEnergy              22276212840                       # Energy for activate commands per rank (pJ)
system.mem_ctrls_1.preEnergy              12154679625                       # Energy for precharge commands per rank (pJ)
system.mem_ctrls_1.readEnergy             27388795200                       # Energy for read commands per rank (pJ)
system.mem_ctrls_1.writeEnergy             7836400080                       # Energy for write commands per rank (pJ)
system.mem_ctrls_1.refreshEnergy          32809748400                       # Energy for refresh commands per rank (pJ)
system.mem_ctrls_1.actBackEnergy         320290420545                       # Energy for active background per rank (pJ)
system.mem_ctrls_1.preBackEnergy          20441634000                       # Energy for precharge background per rank (pJ)
system.mem_ctrls_1.totalEnergy           443197890690                       # Total energy per rank (pJ)
system.mem_ctrls_1.averagePower            882.283917                       # Core power per rank (mW)
system.mem_ctrls_1.memoryStateTime::IDLE  32080620000                       # Time in different power states
system.mem_ctrls_1.memoryStateTime::REF   16755440000                       # Time in different power states
system.mem_ctrls_1.memoryStateTime::PRE_PDN            0                       # Time in different power states
system.mem_ctrls_1.memoryStateTime::ACT  452941095500                       # Time in different power states
system.mem_ctrls_1.memoryStateTime::ACT_PDN            0                       # Time in different power states
system.realview.nvmem.pwrStateResidencyTicks::UNDEFINED 3738198817000                       # Cumulative time (in ticks) in various power states
system.realview.vram.pwrStateResidencyTicks::UNDEFINED 3738198817000                       # Cumulative time (in ticks) in various power states
system.pwrStateResidencyTicks::UNDEFINED 3738198817000                       # Cumulative time (in ticks) in various power states
system.bridge.pwrStateResidencyTicks::UNDEFINED 3738198817000                       # Cumulative time (in ticks) in various power states
system.cf0.dma_read_full_pages                      0                       # Number of full page size DMA reads (not PRD).
system.cf0.dma_read_bytes                           0                       # Number of bytes transfered via DMA reads (not PRD).
system.cf0.dma_read_txs                             0                       # Number of DMA read transactions (not PRD).
system.cf0.dma_write_full_pages                   439                       # Number of full page size DMA writes.
system.cf0.dma_write_bytes                    1825792                       # Number of bytes transfered via DMA writes.
system.cf0.dma_write_txs                          463                       # Number of DMA write transactions.
system.cpu_voltage_domain.voltage                   1                       # Voltage in Volts
system.cpu_clk_domain.clock                       500                       # Clock period in ticks
system.cpu0.dstage2_mmu.stage2_tlb.walker.pwrStateResidencyTicks::UNDEFINED 3738198817000                       # Cumulative time (in ticks) in various power states
system.cpu0.dstage2_mmu.stage2_tlb.walker.walks            0                       # Table walker walks requested
system.cpu0.dstage2_mmu.stage2_tlb.walker.walkRequestOrigin_Requested::Data            0                       # Table walker requests started/completed, data/inst
system.cpu0.dstage2_mmu.stage2_tlb.walker.walkRequestOrigin_Requested::Inst            0                       # Table walker requests started/completed, data/inst
system.cpu0.dstage2_mmu.stage2_tlb.walker.walkRequestOrigin_Requested::total            0                       # Table walker requests started/completed, data/inst
system.cpu0.dstage2_mmu.stage2_tlb.walker.walkRequestOrigin_Completed::Data            0                       # Table walker requests started/completed, data/inst
system.cpu0.dstage2_mmu.stage2_tlb.walker.walkRequestOrigin_Completed::Inst            0                       # Table walker requests started/completed, data/inst
system.cpu0.dstage2_mmu.stage2_tlb.walker.walkRequestOrigin_Completed::total            0                       # Table walker requests started/completed, data/inst
system.cpu0.dstage2_mmu.stage2_tlb.walker.walkRequestOrigin::total            0                       # Table walker requests started/completed, data/inst
system.cpu0.dstage2_mmu.stage2_tlb.inst_hits            0                       # ITB inst hits
system.cpu0.dstage2_mmu.stage2_tlb.inst_misses            0                       # ITB inst misses
system.cpu0.dstage2_mmu.stage2_tlb.read_hits            0                       # DTB read hits
system.cpu0.dstage2_mmu.stage2_tlb.read_misses            0                       # DTB read misses
system.cpu0.dstage2_mmu.stage2_tlb.write_hits            0                       # DTB write hits
system.cpu0.dstage2_mmu.stage2_tlb.write_misses            0                       # DTB write misses
system.cpu0.dstage2_mmu.stage2_tlb.flush_tlb            0                       # Number of times complete TLB was flushed
system.cpu0.dstage2_mmu.stage2_tlb.flush_tlb_mva            0                       # Number of times TLB was flushed by MVA
system.cpu0.dstage2_mmu.stage2_tlb.flush_tlb_mva_asid            0                       # Number of times TLB was flushed by MVA & ASID
system.cpu0.dstage2_mmu.stage2_tlb.flush_tlb_asid            0                       # Number of times TLB was flushed by ASID
system.cpu0.dstage2_mmu.stage2_tlb.flush_entries            0                       # Number of entries that have been flushed from TLB
system.cpu0.dstage2_mmu.stage2_tlb.align_faults            0                       # Number of TLB faults due to alignment restrictions
system.cpu0.dstage2_mmu.stage2_tlb.prefetch_faults            0                       # Number of TLB faults due to prefetch
system.cpu0.dstage2_mmu.stage2_tlb.domain_faults            0                       # Number of TLB faults due to domain restrictions
system.cpu0.dstage2_mmu.stage2_tlb.perms_faults            0                       # Number of TLB faults due to permissions restrictions
system.cpu0.dstage2_mmu.stage2_tlb.read_accesses            0                       # DTB read accesses
system.cpu0.dstage2_mmu.stage2_tlb.write_accesses            0                       # DTB write accesses
system.cpu0.dstage2_mmu.stage2_tlb.inst_accesses            0                       # ITB inst accesses
system.cpu0.dstage2_mmu.stage2_tlb.hits             0                       # DTB hits
system.cpu0.dstage2_mmu.stage2_tlb.misses            0                       # DTB misses
system.cpu0.dstage2_mmu.stage2_tlb.accesses            0                       # DTB accesses
system.cpu0.dtb.walker.pwrStateResidencyTicks::UNDEFINED 3738198817000                       # Cumulative time (in ticks) in various power states
system.cpu0.dtb.walker.walks                        0                       # Table walker walks requested
system.cpu0.dtb.walker.walkRequestOrigin_Requested::Data            0                       # Table walker requests started/completed, data/inst
system.cpu0.dtb.walker.walkRequestOrigin_Requested::Inst            0                       # Table walker requests started/completed, data/inst
system.cpu0.dtb.walker.walkRequestOrigin_Requested::total            0                       # Table walker requests started/completed, data/inst
system.cpu0.dtb.walker.walkRequestOrigin_Completed::Data            0                       # Table walker requests started/completed, data/inst
system.cpu0.dtb.walker.walkRequestOrigin_Completed::Inst            0                       # Table walker requests started/completed, data/inst
system.cpu0.dtb.walker.walkRequestOrigin_Completed::total            0                       # Table walker requests started/completed, data/inst
system.cpu0.dtb.walker.walkRequestOrigin::total            0                       # Table walker requests started/completed, data/inst
system.cpu0.dtb.inst_hits                           0                       # ITB inst hits
system.cpu0.dtb.inst_misses                         0                       # ITB inst misses
system.cpu0.dtb.read_hits                           0                       # DTB read hits
system.cpu0.dtb.read_misses                         0                       # DTB read misses
system.cpu0.dtb.write_hits                          0                       # DTB write hits
system.cpu0.dtb.write_misses                        0                       # DTB write misses
system.cpu0.dtb.flush_tlb                           0                       # Number of times complete TLB was flushed
system.cpu0.dtb.flush_tlb_mva                       0                       # Number of times TLB was flushed by MVA
system.cpu0.dtb.flush_tlb_mva_asid                  0                       # Number of times TLB was flushed by MVA & ASID
system.cpu0.dtb.flush_tlb_asid                      0                       # Number of times TLB was flushed by ASID
system.cpu0.dtb.flush_entries                       0                       # Number of entries that have been flushed from TLB
system.cpu0.dtb.align_faults                        0                       # Number of TLB faults due to alignment restrictions
system.cpu0.dtb.prefetch_faults                     0                       # Number of TLB faults due to prefetch
system.cpu0.dtb.domain_faults                       0                       # Number of TLB faults due to domain restrictions
system.cpu0.dtb.perms_faults                        0                       # Number of TLB faults due to permissions restrictions
system.cpu0.dtb.read_accesses                       0                       # DTB read accesses
system.cpu0.dtb.write_accesses                      0                       # DTB write accesses
system.cpu0.dtb.inst_accesses                       0                       # ITB inst accesses
system.cpu0.dtb.hits                                0                       # DTB hits
system.cpu0.dtb.misses                              0                       # DTB misses
system.cpu0.dtb.accesses                            0                       # DTB accesses
system.cpu0.istage2_mmu.stage2_tlb.walker.pwrStateResidencyTicks::UNDEFINED 3738198817000                       # Cumulative time (in ticks) in various power states
system.cpu0.istage2_mmu.stage2_tlb.walker.walks            0                       # Table walker walks requested
system.cpu0.istage2_mmu.stage2_tlb.walker.walkRequestOrigin_Requested::Data            0                       # Table walker requests started/completed, data/inst
system.cpu0.istage2_mmu.stage2_tlb.walker.walkRequestOrigin_Requested::Inst            0                       # Table walker requests started/completed, data/inst
system.cpu0.istage2_mmu.stage2_tlb.walker.walkRequestOrigin_Requested::total            0                       # Table walker requests started/completed, data/inst
system.cpu0.istage2_mmu.stage2_tlb.walker.walkRequestOrigin_Completed::Data            0                       # Table walker requests started/completed, data/inst
system.cpu0.istage2_mmu.stage2_tlb.walker.walkRequestOrigin_Completed::Inst            0                       # Table walker requests started/completed, data/inst
system.cpu0.istage2_mmu.stage2_tlb.walker.walkRequestOrigin_Completed::total            0                       # Table walker requests started/completed, data/inst
system.cpu0.istage2_mmu.stage2_tlb.walker.walkRequestOrigin::total            0                       # Table walker requests started/completed, data/inst
system.cpu0.istage2_mmu.stage2_tlb.inst_hits            0                       # ITB inst hits
system.cpu0.istage2_mmu.stage2_tlb.inst_misses            0                       # ITB inst misses
system.cpu0.istage2_mmu.stage2_tlb.read_hits            0                       # DTB read hits
system.cpu0.istage2_mmu.stage2_tlb.read_misses            0                       # DTB read misses
system.cpu0.istage2_mmu.stage2_tlb.write_hits            0                       # DTB write hits
system.cpu0.istage2_mmu.stage2_tlb.write_misses            0                       # DTB write misses
system.cpu0.istage2_mmu.stage2_tlb.flush_tlb            0                       # Number of times complete TLB was flushed
system.cpu0.istage2_mmu.stage2_tlb.flush_tlb_mva            0                       # Number of times TLB was flushed by MVA
system.cpu0.istage2_mmu.stage2_tlb.flush_tlb_mva_asid            0                       # Number of times TLB was flushed by MVA & ASID
system.cpu0.istage2_mmu.stage2_tlb.flush_tlb_asid            0                       # Number of times TLB was flushed by ASID
system.cpu0.istage2_mmu.stage2_tlb.flush_entries            0                       # Number of entries that have been flushed from TLB
system.cpu0.istage2_mmu.stage2_tlb.align_faults            0                       # Number of TLB faults due to alignment restrictions
system.cpu0.istage2_mmu.stage2_tlb.prefetch_faults            0                       # Number of TLB faults due to prefetch
system.cpu0.istage2_mmu.stage2_tlb.domain_faults            0                       # Number of TLB faults due to domain restrictions
system.cpu0.istage2_mmu.stage2_tlb.perms_faults            0                       # Number of TLB faults due to permissions restrictions
system.cpu0.istage2_mmu.stage2_tlb.read_accesses            0                       # DTB read accesses
system.cpu0.istage2_mmu.stage2_tlb.write_accesses            0                       # DTB write accesses
system.cpu0.istage2_mmu.stage2_tlb.inst_accesses            0                       # ITB inst accesses
system.cpu0.istage2_mmu.stage2_tlb.hits             0                       # DTB hits
system.cpu0.istage2_mmu.stage2_tlb.misses            0                       # DTB misses
system.cpu0.istage2_mmu.stage2_tlb.accesses            0                       # DTB accesses
system.cpu0.itb.walker.pwrStateResidencyTicks::UNDEFINED 3738198817000                       # Cumulative time (in ticks) in various power states
system.cpu0.itb.walker.walks                        0                       # Table walker walks requested
system.cpu0.itb.walker.walkRequestOrigin_Requested::Data            0                       # Table walker requests started/completed, data/inst
system.cpu0.itb.walker.walkRequestOrigin_Requested::Inst            0                       # Table walker requests started/completed, data/inst
system.cpu0.itb.walker.walkRequestOrigin_Requested::total            0                       # Table walker requests started/completed, data/inst
system.cpu0.itb.walker.walkRequestOrigin_Completed::Data            0                       # Table walker requests started/completed, data/inst
system.cpu0.itb.walker.walkRequestOrigin_Completed::Inst            0                       # Table walker requests started/completed, data/inst
system.cpu0.itb.walker.walkRequestOrigin_Completed::total            0                       # Table walker requests started/completed, data/inst
system.cpu0.itb.walker.walkRequestOrigin::total            0                       # Table walker requests started/completed, data/inst
system.cpu0.itb.inst_hits                           0                       # ITB inst hits
system.cpu0.itb.inst_misses                         0                       # ITB inst misses
system.cpu0.itb.read_hits                           0                       # DTB read hits
system.cpu0.itb.read_misses                         0                       # DTB read misses
system.cpu0.itb.write_hits                          0                       # DTB write hits
system.cpu0.itb.write_misses                        0                       # DTB write misses
system.cpu0.itb.flush_tlb                           0                       # Number of times complete TLB was flushed
system.cpu0.itb.flush_tlb_mva                       0                       # Number of times TLB was flushed by MVA
system.cpu0.itb.flush_tlb_mva_asid                  0                       # Number of times TLB was flushed by MVA & ASID
system.cpu0.itb.flush_tlb_asid                      0                       # Number of times TLB was flushed by ASID
system.cpu0.itb.flush_entries                       0                       # Number of entries that have been flushed from TLB
system.cpu0.itb.align_faults                        0                       # Number of TLB faults due to alignment restrictions
system.cpu0.itb.prefetch_faults                     0                       # Number of TLB faults due to prefetch
system.cpu0.itb.domain_faults                       0                       # Number of TLB faults due to domain restrictions
system.cpu0.itb.perms_faults                        0                       # Number of TLB faults due to permissions restrictions
system.cpu0.itb.read_accesses                       0                       # DTB read accesses
system.cpu0.itb.write_accesses                      0                       # DTB write accesses
system.cpu0.itb.inst_accesses                       0                       # ITB inst accesses
system.cpu0.itb.hits                                0                       # DTB hits
system.cpu0.itb.misses                              0                       # DTB misses
system.cpu0.itb.accesses                            0                       # DTB accesses
system.cpu0.pwrStateResidencyTicks::ON   502337699000                       # Cumulative time (in ticks) in various power states
system.cpu0.numCycles                               0                       # number of cpu cycles simulated
system.cpu0.numWorkItemsStarted                     0                       # number of work items this cpu started
system.cpu0.numWorkItemsCompleted                   0                       # number of work items this cpu completed
system.cpu0.kern.inst.arm                           0                       # number of arm instructions executed
system.cpu0.kern.inst.quiesce                    3685                       # number of quiesce instructions executed
system.cpu0.committedInsts                          0                       # Number of instructions committed
system.cpu0.committedOps                            0                       # Number of ops (including micro ops) committed
system.cpu0.num_int_alu_accesses                    0                       # Number of integer alu accesses
system.cpu0.num_fp_alu_accesses                     0                       # Number of float alu accesses
system.cpu0.num_func_calls                          0                       # number of times a function call or return occured
system.cpu0.num_conditional_control_insts            0                       # number of instructions that are conditional controls
system.cpu0.num_int_insts                           0                       # number of integer instructions
system.cpu0.num_fp_insts                            0                       # number of float instructions
system.cpu0.num_int_register_reads                  0                       # number of times the integer registers were read
system.cpu0.num_int_register_writes                 0                       # number of times the integer registers were written
system.cpu0.num_fp_register_reads                   0                       # number of times the floating registers were read
system.cpu0.num_fp_register_writes                  0                       # number of times the floating registers were written
system.cpu0.num_mem_refs                            0                       # number of memory refs
system.cpu0.num_load_insts                          0                       # Number of load instructions
system.cpu0.num_store_insts                         0                       # Number of store instructions
system.cpu0.num_idle_cycles                         0                       # Number of idle cycles
system.cpu0.num_busy_cycles                         0                       # Number of busy cycles
system.cpu0.not_idle_fraction                       0                       # Percentage of non-idle cycles
system.cpu0.idle_fraction                           1                       # Percentage of idle cycles
system.cpu0.op_class::No_OpClass                    0                       # Class of executed instruction
system.cpu0.op_class::IntAlu                        0                       # Class of executed instruction
system.cpu0.op_class::IntMult                       0                       # Class of executed instruction
system.cpu0.op_class::IntDiv                        0                       # Class of executed instruction
system.cpu0.op_class::FloatAdd                      0                       # Class of executed instruction
system.cpu0.op_class::FloatCmp                      0                       # Class of executed instruction
system.cpu0.op_class::FloatCvt                      0                       # Class of executed instruction
system.cpu0.op_class::FloatMult                     0                       # Class of executed instruction
system.cpu0.op_class::FloatDiv                      0                       # Class of executed instruction
system.cpu0.op_class::FloatSqrt                     0                       # Class of executed instruction
system.cpu0.op_class::SimdAdd                       0                       # Class of executed instruction
system.cpu0.op_class::SimdAddAcc                    0                       # Class of executed instruction
system.cpu0.op_class::SimdAlu                       0                       # Class of executed instruction
system.cpu0.op_class::SimdCmp                       0                       # Class of executed instruction
system.cpu0.op_class::SimdCvt                       0                       # Class of executed instruction
system.cpu0.op_class::SimdMisc                      0                       # Class of executed instruction
system.cpu0.op_class::SimdMult                      0                       # Class of executed instruction
system.cpu0.op_class::SimdMultAcc                   0                       # Class of executed instruction
system.cpu0.op_class::SimdShift                     0                       # Class of executed instruction
system.cpu0.op_class::SimdShiftAcc                  0                       # Class of executed instruction
system.cpu0.op_class::SimdSqrt                      0                       # Class of executed instruction
system.cpu0.op_class::SimdFloatAdd                  0                       # Class of executed instruction
system.cpu0.op_class::SimdFloatAlu                  0                       # Class of executed instruction
system.cpu0.op_class::SimdFloatCmp                  0                       # Class of executed instruction
system.cpu0.op_class::SimdFloatCvt                  0                       # Class of executed instruction
system.cpu0.op_class::SimdFloatDiv                  0                       # Class of executed instruction
system.cpu0.op_class::SimdFloatMisc                 0                       # Class of executed instruction
system.cpu0.op_class::SimdFloatMult                 0                       # Class of executed instruction
system.cpu0.op_class::SimdFloatMultAcc              0                       # Class of executed instruction
system.cpu0.op_class::SimdFloatSqrt                 0                       # Class of executed instruction
system.cpu0.op_class::MemRead                       0                       # Class of executed instruction
system.cpu0.op_class::MemWrite                      0                       # Class of executed instruction
system.cpu0.op_class::IprAccess                     0                       # Class of executed instruction
system.cpu0.op_class::InstPrefetch                  0                       # Class of executed instruction
system.cpu0.op_class::total                         0                       # Class of executed instruction
system.cpu0.dcache.tags.pwrStateResidencyTicks::UNDEFINED 3738198817000                       # Cumulative time (in ticks) in various power states
system.cpu0.dcache.tags.replacements          2679558                       # number of replacements
system.cpu0.dcache.tags.tagsinuse          902.003927                       # Cycle average of tags in use
system.cpu0.dcache.tags.total_refs           85902397                       # Total number of references to valid blocks.
system.cpu0.dcache.tags.sampled_refs          2680560                       # Sample count of references to valid blocks.
system.cpu0.dcache.tags.avg_refs            32.046437                       # Average number of references to valid blocks.
system.cpu0.dcache.tags.warmup_cycle     3236977362500                       # Cycle when the warmup percentage was hit.
system.cpu0.dcache.tags.occ_blocks::switch_cpus0.data   902.003927                       # Average occupied blocks per requestor
system.cpu0.dcache.tags.occ_percent::switch_cpus0.data     0.880863                       # Average percentage of cache occupancy
system.cpu0.dcache.tags.occ_percent::total     0.880863                       # Average percentage of cache occupancy
system.cpu0.dcache.tags.occ_task_id_blocks::1024         1002                       # Occupied blocks per task id
system.cpu0.dcache.tags.age_task_id_blocks_1024::0           36                       # Occupied blocks per task id
system.cpu0.dcache.tags.age_task_id_blocks_1024::1          689                       # Occupied blocks per task id
system.cpu0.dcache.tags.age_task_id_blocks_1024::2          277                       # Occupied blocks per task id
system.cpu0.dcache.tags.occ_task_id_percent::1024     0.978516                       # Percentage of cache occupancy per task id
system.cpu0.dcache.tags.tag_accesses        204461519                       # Number of tag accesses
system.cpu0.dcache.tags.data_accesses       204461519                       # Number of data accesses
system.cpu0.dcache.pwrStateResidencyTicks::UNDEFINED 3738198817000                       # Cumulative time (in ticks) in various power states
system.cpu0.dcache.ReadReq_hits::switch_cpus0.data     52369087                       # number of ReadReq hits
system.cpu0.dcache.ReadReq_hits::total       52369087                       # number of ReadReq hits
system.cpu0.dcache.WriteReq_hits::switch_cpus0.data     30523826                       # number of WriteReq hits
system.cpu0.dcache.WriteReq_hits::total      30523826                       # number of WriteReq hits
system.cpu0.dcache.SoftPFReq_hits::switch_cpus0.data       605736                       # number of SoftPFReq hits
system.cpu0.dcache.SoftPFReq_hits::total       605736                       # number of SoftPFReq hits
system.cpu0.dcache.LoadLockedReq_hits::switch_cpus0.data      1060742                       # number of LoadLockedReq hits
system.cpu0.dcache.LoadLockedReq_hits::total      1060742                       # number of LoadLockedReq hits
system.cpu0.dcache.StoreCondReq_hits::switch_cpus0.data      1031827                       # number of StoreCondReq hits
system.cpu0.dcache.StoreCondReq_hits::total      1031827                       # number of StoreCondReq hits
system.cpu0.dcache.demand_hits::switch_cpus0.data     82892913                       # number of demand (read+write) hits
system.cpu0.dcache.demand_hits::total        82892913                       # number of demand (read+write) hits
system.cpu0.dcache.overall_hits::switch_cpus0.data     83498649                       # number of overall hits
system.cpu0.dcache.overall_hits::total       83498649                       # number of overall hits
system.cpu0.dcache.ReadReq_misses::switch_cpus0.data      4033037                       # number of ReadReq misses
system.cpu0.dcache.ReadReq_misses::total      4033037                       # number of ReadReq misses
system.cpu0.dcache.WriteReq_misses::switch_cpus0.data     10596671                       # number of WriteReq misses
system.cpu0.dcache.WriteReq_misses::total     10596671                       # number of WriteReq misses
system.cpu0.dcache.SoftPFReq_misses::switch_cpus0.data       493259                       # number of SoftPFReq misses
system.cpu0.dcache.SoftPFReq_misses::total       493259                       # number of SoftPFReq misses
system.cpu0.dcache.LoadLockedReq_misses::switch_cpus0.data        57998                       # number of LoadLockedReq misses
system.cpu0.dcache.LoadLockedReq_misses::total        57998                       # number of LoadLockedReq misses
system.cpu0.dcache.StoreCondReq_misses::switch_cpus0.data        41735                       # number of StoreCondReq misses
system.cpu0.dcache.StoreCondReq_misses::total        41735                       # number of StoreCondReq misses
system.cpu0.dcache.demand_misses::switch_cpus0.data     14629708                       # number of demand (read+write) misses
system.cpu0.dcache.demand_misses::total      14629708                       # number of demand (read+write) misses
system.cpu0.dcache.overall_misses::switch_cpus0.data     15122967                       # number of overall misses
system.cpu0.dcache.overall_misses::total     15122967                       # number of overall misses
system.cpu0.dcache.ReadReq_miss_latency::switch_cpus0.data  93230129500                       # number of ReadReq miss cycles
system.cpu0.dcache.ReadReq_miss_latency::total  93230129500                       # number of ReadReq miss cycles
system.cpu0.dcache.WriteReq_miss_latency::switch_cpus0.data 334123324264                       # number of WriteReq miss cycles
system.cpu0.dcache.WriteReq_miss_latency::total 334123324264                       # number of WriteReq miss cycles
system.cpu0.dcache.LoadLockedReq_miss_latency::switch_cpus0.data   1070430500                       # number of LoadLockedReq miss cycles
system.cpu0.dcache.LoadLockedReq_miss_latency::total   1070430500                       # number of LoadLockedReq miss cycles
system.cpu0.dcache.StoreCondReq_miss_latency::switch_cpus0.data    206717500                       # number of StoreCondReq miss cycles
system.cpu0.dcache.StoreCondReq_miss_latency::total    206717500                       # number of StoreCondReq miss cycles
system.cpu0.dcache.StoreCondFailReq_miss_latency::switch_cpus0.data       138000                       # number of StoreCondFailReq miss cycles
system.cpu0.dcache.StoreCondFailReq_miss_latency::total       138000                       # number of StoreCondFailReq miss cycles
system.cpu0.dcache.demand_miss_latency::switch_cpus0.data 427353453764                       # number of demand (read+write) miss cycles
system.cpu0.dcache.demand_miss_latency::total 427353453764                       # number of demand (read+write) miss cycles
system.cpu0.dcache.overall_miss_latency::switch_cpus0.data 427353453764                       # number of overall miss cycles
system.cpu0.dcache.overall_miss_latency::total 427353453764                       # number of overall miss cycles
system.cpu0.dcache.ReadReq_accesses::switch_cpus0.data     56402124                       # number of ReadReq accesses(hits+misses)
system.cpu0.dcache.ReadReq_accesses::total     56402124                       # number of ReadReq accesses(hits+misses)
system.cpu0.dcache.WriteReq_accesses::switch_cpus0.data     41120497                       # number of WriteReq accesses(hits+misses)
system.cpu0.dcache.WriteReq_accesses::total     41120497                       # number of WriteReq accesses(hits+misses)
system.cpu0.dcache.SoftPFReq_accesses::switch_cpus0.data      1098995                       # number of SoftPFReq accesses(hits+misses)
system.cpu0.dcache.SoftPFReq_accesses::total      1098995                       # number of SoftPFReq accesses(hits+misses)
system.cpu0.dcache.LoadLockedReq_accesses::switch_cpus0.data      1118740                       # number of LoadLockedReq accesses(hits+misses)
system.cpu0.dcache.LoadLockedReq_accesses::total      1118740                       # number of LoadLockedReq accesses(hits+misses)
system.cpu0.dcache.StoreCondReq_accesses::switch_cpus0.data      1073562                       # number of StoreCondReq accesses(hits+misses)
system.cpu0.dcache.StoreCondReq_accesses::total      1073562                       # number of StoreCondReq accesses(hits+misses)
system.cpu0.dcache.demand_accesses::switch_cpus0.data     97522621                       # number of demand (read+write) accesses
system.cpu0.dcache.demand_accesses::total     97522621                       # number of demand (read+write) accesses
system.cpu0.dcache.overall_accesses::switch_cpus0.data     98621616                       # number of overall (read+write) accesses
system.cpu0.dcache.overall_accesses::total     98621616                       # number of overall (read+write) accesses
system.cpu0.dcache.ReadReq_miss_rate::switch_cpus0.data     0.071505                       # miss rate for ReadReq accesses
system.cpu0.dcache.ReadReq_miss_rate::total     0.071505                       # miss rate for ReadReq accesses
system.cpu0.dcache.WriteReq_miss_rate::switch_cpus0.data     0.257698                       # miss rate for WriteReq accesses
system.cpu0.dcache.WriteReq_miss_rate::total     0.257698                       # miss rate for WriteReq accesses
system.cpu0.dcache.SoftPFReq_miss_rate::switch_cpus0.data     0.448827                       # miss rate for SoftPFReq accesses
system.cpu0.dcache.SoftPFReq_miss_rate::total     0.448827                       # miss rate for SoftPFReq accesses
system.cpu0.dcache.LoadLockedReq_miss_rate::switch_cpus0.data     0.051842                       # miss rate for LoadLockedReq accesses
system.cpu0.dcache.LoadLockedReq_miss_rate::total     0.051842                       # miss rate for LoadLockedReq accesses
system.cpu0.dcache.StoreCondReq_miss_rate::switch_cpus0.data     0.038875                       # miss rate for StoreCondReq accesses
system.cpu0.dcache.StoreCondReq_miss_rate::total     0.038875                       # miss rate for StoreCondReq accesses
system.cpu0.dcache.demand_miss_rate::switch_cpus0.data     0.150013                       # miss rate for demand accesses
system.cpu0.dcache.demand_miss_rate::total     0.150013                       # miss rate for demand accesses
system.cpu0.dcache.overall_miss_rate::switch_cpus0.data     0.153343                       # miss rate for overall accesses
system.cpu0.dcache.overall_miss_rate::total     0.153343                       # miss rate for overall accesses
system.cpu0.dcache.ReadReq_avg_miss_latency::switch_cpus0.data 23116.606542                       # average ReadReq miss latency
system.cpu0.dcache.ReadReq_avg_miss_latency::total 23116.606542                       # average ReadReq miss latency
system.cpu0.dcache.WriteReq_avg_miss_latency::switch_cpus0.data 31530.970836                       # average WriteReq miss latency
system.cpu0.dcache.WriteReq_avg_miss_latency::total 31530.970836                       # average WriteReq miss latency
system.cpu0.dcache.LoadLockedReq_avg_miss_latency::switch_cpus0.data 18456.334701                       # average LoadLockedReq miss latency
system.cpu0.dcache.LoadLockedReq_avg_miss_latency::total 18456.334701                       # average LoadLockedReq miss latency
system.cpu0.dcache.StoreCondReq_avg_miss_latency::switch_cpus0.data  4953.096921                       # average StoreCondReq miss latency
system.cpu0.dcache.StoreCondReq_avg_miss_latency::total  4953.096921                       # average StoreCondReq miss latency
system.cpu0.dcache.StoreCondFailReq_avg_miss_latency::switch_cpus0.data          inf                       # average StoreCondFailReq miss latency
system.cpu0.dcache.StoreCondFailReq_avg_miss_latency::total          inf                       # average StoreCondFailReq miss latency
system.cpu0.dcache.demand_avg_miss_latency::switch_cpus0.data 29211.345419                       # average overall miss latency
system.cpu0.dcache.demand_avg_miss_latency::total 29211.345419                       # average overall miss latency
system.cpu0.dcache.overall_avg_miss_latency::switch_cpus0.data 28258.572128                       # average overall miss latency
system.cpu0.dcache.overall_avg_miss_latency::total 28258.572128                       # average overall miss latency
system.cpu0.dcache.blocked_cycles::no_mshrs      4954471                       # number of cycles access was blocked
system.cpu0.dcache.blocked_cycles::no_targets       407760                       # number of cycles access was blocked
system.cpu0.dcache.blocked::no_mshrs           257089                       # number of cycles access was blocked
system.cpu0.dcache.blocked::no_targets           4968                       # number of cycles access was blocked
system.cpu0.dcache.avg_blocked_cycles::no_mshrs    19.271424                       # average number of cycles each access was blocked
system.cpu0.dcache.avg_blocked_cycles::no_targets    82.077295                       # average number of cycles each access was blocked
system.cpu0.dcache.writebacks::writebacks      1498918                       # number of writebacks
system.cpu0.dcache.writebacks::total          1498918                       # number of writebacks
system.cpu0.dcache.ReadReq_mshr_hits::switch_cpus0.data      2448199                       # number of ReadReq MSHR hits
system.cpu0.dcache.ReadReq_mshr_hits::total      2448199                       # number of ReadReq MSHR hits
[...]
system.switch_cpus3.commit.op_class_0::SimdCmp            0      0.00%     62.00% # Class of committed instruction
system.switch_cpus3.commit.op_class_0::SimdCvt            0      0.00%     62.00% # Class of committed instruction
system.switch_cpus3.commit.op_class_0::SimdMisc            0      0.00%     62.00% # Class of committed instruction
system.switch_cpus3.commit.op_class_0::SimdMult            0      0.00%     62.00% # Class of committed instruction
system.switch_cpus3.commit.op_class_0::SimdMultAcc            0      0.00%     62.00% # Class of committed instruction
system.switch_cpus3.commit.op_class_0::SimdShift            0      0.00%     62.00% # Class of committed instruction
system.switch_cpus3.commit.op_class_0::SimdShiftAcc            0      0.00%     62.00% # Class of committed instruction
system.switch_cpus3.commit.op_class_0::SimdSqrt            0      0.00%     62.00% # Class of committed instruction
system.switch_cpus3.commit.op_class_0::SimdFloatAdd            0      0.00%     62.00% # Class of committed instruction
system.switch_cpus3.commit.op_class_0::SimdFloatAlu            0      0.00%     62.00% # Class of committed instruction
system.switch_cpus3.commit.op_class_0::SimdFloatCmp            8      0.00%     62.00% # Class of committed instruction
system.switch_cpus3.commit.op_class_0::SimdFloatCvt           16      0.00%     62.00% # Class of committed instruction
system.switch_cpus3.commit.op_class_0::SimdFloatDiv            8      0.00%     62.00% # Class of committed instruction
system.switch_cpus3.commit.op_class_0::SimdFloatMisc        18941      0.00%     62.01% # Class of committed instruction
system.switch_cpus3.commit.op_class_0::SimdFloatMult            0      0.00%     62.01% # Class of committed instruction
system.switch_cpus3.commit.op_class_0::SimdFloatMultAcc            0      0.00%     62.01% # Class of committed instruction
system.switch_cpus3.commit.op_class_0::SimdFloatSqrt            0      0.00%     62.01% # Class of committed instruction
system.switch_cpus3.commit.op_class_0::MemRead     87144737     19.88%     81.89% # Class of committed instruction
system.switch_cpus3.commit.op_class_0::MemWrite     79399577     18.11%    100.00% # Class of committed instruction
system.switch_cpus3.commit.op_class_0::IprAccess            0      0.00%    100.00% # Class of committed instruction
system.switch_cpus3.commit.op_class_0::InstPrefetch            0      0.00%    100.00% # Class of committed instruction
system.switch_cpus3.commit.op_class_0::total    438337130                       # Class of committed instruction
system.switch_cpus3.commit.bw_lim_events     16544856                       # number cycles where commit BW limit reached
system.switch_cpus3.rob.rob_reads          1099883542                       # The number of ROB reads
system.switch_cpus3.rob.rob_writes         1186214155                       # The number of ROB writes
system.switch_cpus3.timesIdled                3088794                       # Number of times that the entire CPU went into an idle state and unscheduled itself
system.switch_cpus3.idleCycles               50218646                       # Total number of cycles that the CPU has spent unscheduled due to idling
system.switch_cpus3.quiesceCycles           384104148                       # Total number of cycles that CPU has spent quiesced or waiting for an interrupt
system.switch_cpus3.committedInsts          346066731                       # Number of Instructions Simulated
system.switch_cpus3.committedOps            436606435                       # Number of Ops (including micro ops) Simulated
system.switch_cpus3.cpi                      1.789180                       # CPI: Cycles Per Instruction
system.switch_cpus3.cpi_total                1.789180                       # CPI: Total CPI of All Threads
system.switch_cpus3.ipc                      0.558915                       # IPC: Instructions Per Cycle
system.switch_cpus3.ipc_total                0.558915                       # IPC: Total IPC of All Threads
system.switch_cpus3.int_regfile_reads       566992666                       # number of integer regfile reads
system.switch_cpus3.int_regfile_writes      313382297                       # number of integer regfile writes
system.switch_cpus3.fp_regfile_reads           133773                       # number of floating regfile reads
system.switch_cpus3.fp_regfile_writes           63156                       # number of floating regfile writes
system.switch_cpus3.cc_regfile_reads       1830292682                       # number of cc regfile reads
system.switch_cpus3.cc_regfile_writes       200260848                       # number of cc regfile writes
system.switch_cpus3.misc_regfile_reads     1120903518                       # number of misc regfile reads
system.switch_cpus3.misc_regfile_writes       7392076                       # number of misc regfile writes
system.tol2bus.snoop_filter.tot_requests     74870929                       # Total number of requests made to the snoop filter.
system.tol2bus.snoop_filter.hit_single_requests     36356328                       # Number of requests hitting in the snoop filter with a single holder of the requested data.
system.tol2bus.snoop_filter.hit_multi_requests      8408630                       # Number of requests hitting in the snoop filter with multiple (>1) holders of the requested data.
system.tol2bus.snoop_filter.tot_snoops         217099                       # Total number of snoops made to the snoop filter.
system.tol2bus.snoop_filter.hit_single_snoops       192170                       # Number of snoops hitting in the snoop filter with a single holder of the requested data.
system.tol2bus.snoop_filter.hit_multi_snoops        24929                       # Number of snoops hitting in the snoop filter with multiple (>1) holders of the requested data.
system.tol2bus.pwrStateResidencyTicks::UNDEFINED 3738198817000                       # Cumulative time (in ticks) in various power states
system.tol2bus.trans_dist::ReadReq           26369320                       # Transaction distribution
system.tol2bus.trans_dist::ReadResp          59377834                       # Transaction distribution
system.tol2bus.trans_dist::WriteReq              7639                       # Transaction distribution
system.tol2bus.trans_dist::WriteResp             7639                       # Transaction distribution
system.tol2bus.trans_dist::WritebackDirty     13028671                       # Transaction distribution
system.tol2bus.trans_dist::WritebackClean     14193801                       # Transaction distribution
system.tol2bus.trans_dist::CleanEvict        15040672                       # Transaction distribution
system.tol2bus.trans_dist::UpgradeReq          419003                       # Transaction distribution
system.tol2bus.trans_dist::SCUpgradeReq        156981                       # Transaction distribution
system.tol2bus.trans_dist::UpgradeResp         575984                       # Transaction distribution
system.tol2bus.trans_dist::SCUpgradeFailReq           45                       # Transaction distribution
system.tol2bus.trans_dist::UpgradeFailResp           45                       # Transaction distribution
system.tol2bus.trans_dist::ReadExReq          3445144                       # Transaction distribution
system.tol2bus.trans_dist::ReadExResp         3445142                       # Transaction distribution
system.tol2bus.trans_dist::ReadCleanReq      14194685                       # Transaction distribution
system.tol2bus.trans_dist::ReadSharedReq     18813846                       # Transaction distribution
system.tol2bus.trans_dist::InvalidateReq         1261                       # Transaction distribution
system.tol2bus.pkt_count_system.cpu0.icache.mem_side::system.l2.cpu_side     12966645                       # Packet count per connected master and slave (bytes)
system.tol2bus.pkt_count_system.cpu0.dcache.mem_side::system.l2.cpu_side      8357181                       # Packet count per connected master and slave (bytes)
system.tol2bus.pkt_count_system.cpu0.itb.walker.dma::system.l2.cpu_side       308369                       # Packet count per connected master and slave (bytes)
system.tol2bus.pkt_count_system.cpu0.dtb.walker.dma::system.l2.cpu_side      1076325                       # Packet count per connected master and slave (bytes)
system.tol2bus.pkt_count_system.cpu1.icache.mem_side::system.l2.cpu_side      1311309                       # Packet count per connected master and slave (bytes)
system.tol2bus.pkt_count_system.cpu1.dcache.mem_side::system.l2.cpu_side     37225183                       # Packet count per connected master and slave (bytes)
system.tol2bus.pkt_count_system.cpu1.itb.walker.dma::system.l2.cpu_side        81308                       # Packet count per connected master and slave (bytes)
system.tol2bus.pkt_count_system.cpu1.dtb.walker.dma::system.l2.cpu_side     46366234                       # Packet count per connected master and slave (bytes)
system.tol2bus.pkt_count_system.cpu2.icache.mem_side::system.l2.cpu_side      5844287                       # Packet count per connected master and slave (bytes)
system.tol2bus.pkt_count_system.cpu2.dcache.mem_side::system.l2.cpu_side      4715988                       # Packet count per connected master and slave (bytes)
system.tol2bus.pkt_count_system.cpu2.itb.walker.dma::system.l2.cpu_side       226619                       # Packet count per connected master and slave (bytes)
system.tol2bus.pkt_count_system.cpu2.dtb.walker.dma::system.l2.cpu_side       506764                       # Packet count per connected master and slave (bytes)
system.tol2bus.pkt_count_system.cpu3.icache.mem_side::system.l2.cpu_side     22459839                       # Packet count per connected master and slave (bytes)
system.tol2bus.pkt_count_system.cpu3.dcache.mem_side::system.l2.cpu_side     15878859                       # Packet count per connected master and slave (bytes)
system.tol2bus.pkt_count_system.cpu3.itb.walker.dma::system.l2.cpu_side       514745                       # Packet count per connected master and slave (bytes)
system.tol2bus.pkt_count_system.cpu3.dtb.walker.dma::system.l2.cpu_side      1810521                       # Packet count per connected master and slave (bytes)
system.tol2bus.pkt_count::total             159650176                       # Packet count per connected master and slave (bytes)
system.tol2bus.pkt_size_system.cpu0.icache.mem_side::system.l2.cpu_side    553232320                       # Cumulative packet size per connected master and slave (bytes)
system.tol2bus.pkt_size_system.cpu0.dcache.mem_side::system.l2.cpu_side    262767475                       # Cumulative packet size per connected master and slave (bytes)
system.tol2bus.pkt_size_system.cpu0.itb.walker.dma::system.l2.cpu_side       289688                       # Cumulative packet size per connected master and slave (bytes)
system.tol2bus.pkt_size_system.cpu0.dtb.walker.dma::system.l2.cpu_side      1319424                       # Cumulative packet size per connected master and slave (bytes)
system.tol2bus.pkt_size_system.cpu1.icache.mem_side::system.l2.cpu_side     55947968                       # Cumulative packet size per connected master and slave (bytes)
system.tol2bus.pkt_size_system.cpu1.dcache.mem_side::system.l2.cpu_side   1143636030                       # Cumulative packet size per connected master and slave (bytes)
system.tol2bus.pkt_size_system.cpu1.itb.walker.dma::system.l2.cpu_side       160484                       # Cumulative packet size per connected master and slave (bytes)
system.tol2bus.pkt_size_system.cpu1.dtb.walker.dma::system.l2.cpu_side     92718588                       # Cumulative packet size per connected master and slave (bytes)
system.tol2bus.pkt_size_system.cpu2.icache.mem_side::system.l2.cpu_side    249348800                       # Cumulative packet size per connected master and slave (bytes)
system.tol2bus.pkt_size_system.cpu2.dcache.mem_side::system.l2.cpu_side    152443752                       # Cumulative packet size per connected master and slave (bytes)
system.tol2bus.pkt_size_system.cpu2.itb.walker.dma::system.l2.cpu_side       302884                       # Cumulative packet size per connected master and slave (bytes)
system.tol2bus.pkt_size_system.cpu2.dtb.walker.dma::system.l2.cpu_side       713612                       # Cumulative packet size per connected master and slave (bytes)
system.tol2bus.pkt_size_system.cpu3.icache.mem_side::system.l2.cpu_side    958264192                       # Cumulative packet size per connected master and slave (bytes)
system.tol2bus.pkt_size_system.cpu3.dcache.mem_side::system.l2.cpu_side    510478932                       # Cumulative packet size per connected master and slave (bytes)
system.tol2bus.pkt_size_system.cpu3.itb.walker.dma::system.l2.cpu_side       480220                       # Cumulative packet size per connected master and slave (bytes)
system.tol2bus.pkt_size_system.cpu3.dtb.walker.dma::system.l2.cpu_side      2132036                       # Cumulative packet size per connected master and slave (bytes)
system.tol2bus.pkt_size::total             3984236405                       # Cumulative packet size per connected master and slave (bytes)
system.tol2bus.snoops                         9427799                       # Total snoops (count)
system.tol2bus.snoopTraffic                 196557956                       # Total snoop traffic (bytes)
system.tol2bus.snoop_fanout::samples         69806558                       # Request fanout histogram
system.tol2bus.snoop_fanout::mean            0.173078                       # Request fanout histogram
system.tol2bus.snoop_fanout::stdev           0.510464                       # Request fanout histogram
system.tol2bus.snoop_fanout::underflows             0      0.00%      0.00% # Request fanout histogram
system.tol2bus.snoop_fanout::0               60860209     87.18%     87.18% # Request fanout histogram
system.tol2bus.snoop_fanout::1                6660915      9.54%     96.73% # Request fanout histogram
system.tol2bus.snoop_fanout::2                1516145      2.17%     98.90% # Request fanout histogram
system.tol2bus.snoop_fanout::3                 716158      1.03%     99.92% # Request fanout histogram
system.tol2bus.snoop_fanout::4                  30130      0.04%     99.97% # Request fanout histogram
system.tol2bus.snoop_fanout::5                  18551      0.03%     99.99% # Request fanout histogram
system.tol2bus.snoop_fanout::6                   4153      0.01%    100.00% # Request fanout histogram
system.tol2bus.snoop_fanout::7                    297      0.00%    100.00% # Request fanout histogram
system.tol2bus.snoop_fanout::8                      0      0.00%    100.00% # Request fanout histogram
system.tol2bus.snoop_fanout::overflows              0      0.00%    100.00% # Request fanout histogram
system.tol2bus.snoop_fanout::min_value              0                       # Request fanout histogram
system.tol2bus.snoop_fanout::max_value              7                       # Request fanout histogram
system.tol2bus.snoop_fanout::total           69806558                       # Request fanout histogram
system.tol2bus.reqLayer0.occupancy        74756230308                       # Layer occupancy (ticks)
system.tol2bus.reqLayer0.utilization             14.9                       # Layer utilization (%)
system.tol2bus.snoopLayer0.occupancy           425937                       # Layer occupancy (ticks)
system.tol2bus.snoopLayer0.utilization            0.0                       # Layer utilization (%)
system.tol2bus.respLayer0.occupancy        6499731805                       # Layer occupancy (ticks)
system.tol2bus.respLayer0.utilization             1.3                       # Layer utilization (%)
system.tol2bus.respLayer1.occupancy        4355376259                       # Layer occupancy (ticks)
system.tol2bus.respLayer1.utilization             0.9                       # Layer utilization (%)
system.tol2bus.respLayer2.occupancy         236450950                       # Layer occupancy (ticks)
system.tol2bus.respLayer2.utilization             0.0                       # Layer utilization (%)
system.tol2bus.respLayer3.occupancy         749572566                       # Layer occupancy (ticks)
system.tol2bus.respLayer3.utilization             0.1                       # Layer utilization (%)
system.tol2bus.respLayer4.occupancy         659505433                       # Layer occupancy (ticks)
system.tol2bus.respLayer4.utilization             0.1                       # Layer utilization (%)
system.tol2bus.respLayer5.occupancy       18769199303                       # Layer occupancy (ticks)
system.tol2bus.respLayer5.utilization             3.7                       # Layer utilization (%)
system.tol2bus.respLayer6.occupancy          41539272                       # Layer occupancy (ticks)
system.tol2bus.respLayer6.utilization             0.0                       # Layer utilization (%)
system.tol2bus.respLayer7.occupancy       23317650133                       # Layer occupancy (ticks)
system.tol2bus.respLayer7.utilization             4.6                       # Layer utilization (%)
system.tol2bus.respLayer8.occupancy        2931779351                       # Layer occupancy (ticks)
system.tol2bus.respLayer8.utilization             0.6                       # Layer utilization (%)
system.tol2bus.respLayer9.occupancy        2573901525                       # Layer occupancy (ticks)
system.tol2bus.respLayer9.utilization             0.5                       # Layer utilization (%)
system.tol2bus.respLayer10.occupancy        151510713                       # Layer occupancy (ticks)
system.tol2bus.respLayer10.utilization            0.0                       # Layer utilization (%)
system.tol2bus.respLayer11.occupancy        330954606                       # Layer occupancy (ticks)
system.tol2bus.respLayer11.utilization            0.1                       # Layer utilization (%)
system.tol2bus.respLayer12.occupancy      11256309800                       # Layer occupancy (ticks)
system.tol2bus.respLayer12.utilization            2.2                       # Layer utilization (%)
system.tol2bus.respLayer13.occupancy       8227219640                       # Layer occupancy (ticks)
system.tol2bus.respLayer13.utilization            1.6                       # Layer utilization (%)
system.tol2bus.respLayer14.occupancy        395550697                       # Layer occupancy (ticks)
system.tol2bus.respLayer14.utilization            0.1                       # Layer utilization (%)
system.tol2bus.respLayer15.occupancy       1282332940                       # Layer occupancy (ticks)
system.tol2bus.respLayer15.utilization            0.3                       # Layer utilization (%)
system.switch_cpus0.kern.inst.arm                   0                       # number of arm instructions executed
system.switch_cpus0.kern.inst.quiesce               0                       # number of quiesce instructions executed
system.switch_cpus1.kern.inst.arm                   0                       # number of arm instructions executed
system.switch_cpus1.kern.inst.quiesce               0                       # number of quiesce instructions executed
system.switch_cpus2.kern.inst.arm                   0                       # number of arm instructions executed
system.switch_cpus2.kern.inst.quiesce               0                       # number of quiesce instructions executed
system.switch_cpus3.kern.inst.arm                   0                       # number of arm instructions executed
system.switch_cpus3.kern.inst.quiesce               0                       # number of quiesce instructions executed

---------- End Simulation Statistics   ----------
