
---------- Begin Simulation Statistics ----------
sim_seconds                                  0.502760                       # Number of seconds simulated
sim_ticks                                502759534500                       # Number of ticks simulated
final_tick                               3739148452000                       # Number of ticks from beginning of simulation (restored from checkpoints and never reset)
sim_freq                                 1000000000000                       # Frequency of simulated ticks
host_inst_rate                                 154575                       # Simulator instruction rate (inst/s)
host_op_rate                                   184762                       # Simulator op (including micro ops) rate (op/s)
host_tick_rate                               21339301                       # Simulator tick rate (ticks/s)
host_mem_usage                                2655904                       # Number of bytes of host memory used
host_seconds                                 23560.26                       # Real time elapsed on the host
sim_insts                                  3641828823                       # Number of instructions simulated
sim_ops                                    4353034950                       # Number of ops (including micro ops) simulated
system.voltage_domain.voltage                       1                       # Voltage in Volts
system.clk_domain.clock                          1000                       # Clock period in ticks
system.mem_ctrls.pwrStateResidencyTicks::UNDEFINED 3739148452000                       # Cumulative time (in ticks) in various power states
system.mem_ctrls.bytes_read::switch_cpus0.dtb.walker       133632                       # Number of bytes read from this memory
system.mem_ctrls.bytes_read::switch_cpus0.itb.walker        20672                       # Number of bytes read from this memory
system.mem_ctrls.bytes_read::switch_cpus0.inst      1932800                       # Number of bytes read from this memory
system.mem_ctrls.bytes_read::switch_cpus0.data    245110144                       # Number of bytes read from this memory
system.mem_ctrls.bytes_read::switch_cpus1.dtb.walker       302848                       # Number of bytes read from this memory
system.mem_ctrls.bytes_read::switch_cpus1.itb.walker        98880                       # Number of bytes read from this memory
system.mem_ctrls.bytes_read::switch_cpus1.inst      4918336                       # Number of bytes read from this memory
system.mem_ctrls.bytes_read::switch_cpus1.data     10022528                       # Number of bytes read from this memory
system.mem_ctrls.bytes_read::switch_cpus2.dtb.walker       379648                       # Number of bytes read from this memory
system.mem_ctrls.bytes_read::switch_cpus2.itb.walker        23808                       # Number of bytes read from this memory
system.mem_ctrls.bytes_read::switch_cpus2.inst      3221120                       # Number of bytes read from this memory
system.mem_ctrls.bytes_read::switch_cpus2.data    448996032                       # Number of bytes read from this memory
system.mem_ctrls.bytes_read::switch_cpus3.dtb.walker       125696                       # Number of bytes read from this memory
system.mem_ctrls.bytes_read::switch_cpus3.itb.walker        61952                       # Number of bytes read from this memory
system.mem_ctrls.bytes_read::switch_cpus3.inst      2984896                       # Number of bytes read from this memory
system.mem_ctrls.bytes_read::switch_cpus3.data      6299392                       # Number of bytes read from this memory
system.mem_ctrls.bytes_read::total          724632384                       # Number of bytes read from this memory
system.mem_ctrls.bytes_inst_read::switch_cpus0.inst      1932800                       # Number of instructions bytes read from this memory
system.mem_ctrls.bytes_inst_read::switch_cpus1.inst      4918336                       # Number of instructions bytes read from this memory
system.mem_ctrls.bytes_inst_read::switch_cpus2.inst      3221120                       # Number of instructions bytes read from this memory
system.mem_ctrls.bytes_inst_read::switch_cpus3.inst      2984896                       # Number of instructions bytes read from this memory
system.mem_ctrls.bytes_inst_read::total      13057152                       # Number of instructions bytes read from this memory
system.mem_ctrls.bytes_written::writebacks    522785344                       # Number of bytes written to this memory
system.mem_ctrls.bytes_written::total       522785344                       # Number of bytes written to this memory
system.mem_ctrls.num_reads::switch_cpus0.dtb.walker         2088                       # Number of read requests responded to by this memory
system.mem_ctrls.num_reads::switch_cpus0.itb.walker          323                       # Number of read requests responded to by this memory
system.mem_ctrls.num_reads::switch_cpus0.inst        30200                       # Number of read requests responded to by this memory
system.mem_ctrls.num_reads::switch_cpus0.data      3829846                       # Number of read requests responded to by this memory
system.mem_ctrls.num_reads::switch_cpus1.dtb.walker         4732                       # Number of read requests responded to by this memory
system.mem_ctrls.num_reads::switch_cpus1.itb.walker         1545                       # Number of read requests responded to by this memory
system.mem_ctrls.num_reads::switch_cpus1.inst        76849                       # Number of read requests responded to by this memory
system.mem_ctrls.num_reads::switch_cpus1.data       156602                       # Number of read requests responded to by this memory
system.mem_ctrls.num_reads::switch_cpus2.dtb.walker         5932                       # Number of read requests responded to by this memory
system.mem_ctrls.num_reads::switch_cpus2.itb.walker          372                       # Number of read requests responded to by this memory
system.mem_ctrls.num_reads::switch_cpus2.inst        50330                       # Number of read requests responded to by this memory
system.mem_ctrls.num_reads::switch_cpus2.data      7015563                       # Number of read requests responded to by this memory
system.mem_ctrls.num_reads::switch_cpus3.dtb.walker         1964                       # Number of read requests responded to by this memory
system.mem_ctrls.num_reads::switch_cpus3.itb.walker          968                       # Number of read requests responded to by this memory
system.mem_ctrls.num_reads::switch_cpus3.inst        46639                       # Number of read requests responded to by this memory
system.mem_ctrls.num_reads::switch_cpus3.data        98428                       # Number of read requests responded to by this memory
system.mem_ctrls.num_reads::total            11322381                       # Number of read requests responded to by this memory
system.mem_ctrls.num_writes::writebacks       8168521                       # Number of write requests responded to by this memory
system.mem_ctrls.num_writes::total            8168521                       # Number of write requests responded to by this memory
system.mem_ctrls.bw_read::switch_cpus0.dtb.walker       265797                       # Total read bandwidth from this memory (bytes/s)
system.mem_ctrls.bw_read::switch_cpus0.itb.walker        41117                       # Total read bandwidth from this memory (bytes/s)
system.mem_ctrls.bw_read::switch_cpus0.inst      3844383                       # Total read bandwidth from this memory (bytes/s)
system.mem_ctrls.bw_read::switch_cpus0.data    487529579                       # Total read bandwidth from this memory (bytes/s)
system.mem_ctrls.bw_read::switch_cpus1.dtb.walker       602371                       # Total read bandwidth from this memory (bytes/s)
system.mem_ctrls.bw_read::switch_cpus1.itb.walker       196675                       # Total read bandwidth from this memory (bytes/s)
system.mem_ctrls.bw_read::switch_cpus1.inst      9782681                       # Total read bandwidth from this memory (bytes/s)
system.mem_ctrls.bw_read::switch_cpus1.data     19935033                       # Total read bandwidth from this memory (bytes/s)
system.mem_ctrls.bw_read::switch_cpus2.dtb.walker       755128                       # Total read bandwidth from this memory (bytes/s)
system.mem_ctrls.bw_read::switch_cpus2.itb.walker        47355                       # Total read bandwidth from this memory (bytes/s)
system.mem_ctrls.bw_read::switch_cpus2.inst      6406880                       # Total read bandwidth from this memory (bytes/s)
system.mem_ctrls.bw_read::switch_cpus2.data    893063187                       # Total read bandwidth from this memory (bytes/s)
system.mem_ctrls.bw_read::switch_cpus3.dtb.walker       250012                       # Total read bandwidth from this memory (bytes/s)
system.mem_ctrls.bw_read::switch_cpus3.itb.walker       123224                       # Total read bandwidth from this memory (bytes/s)
system.mem_ctrls.bw_read::switch_cpus3.inst      5937025                       # Total read bandwidth from this memory (bytes/s)
system.mem_ctrls.bw_read::switch_cpus3.data     12529632                       # Total read bandwidth from this memory (bytes/s)
system.mem_ctrls.bw_read::total            1441310078                       # Total read bandwidth from this memory (bytes/s)
system.mem_ctrls.bw_inst_read::switch_cpus0.inst      3844383                       # Instruction read bandwidth from this memory (bytes/s)
system.mem_ctrls.bw_inst_read::switch_cpus1.inst      9782681                       # Instruction read bandwidth from this memory (bytes/s)
system.mem_ctrls.bw_inst_read::switch_cpus2.inst      6406880                       # Instruction read bandwidth from this memory (bytes/s)
system.mem_ctrls.bw_inst_read::switch_cpus3.inst      5937025                       # Instruction read bandwidth from this memory (bytes/s)
system.mem_ctrls.bw_inst_read::total         25970968                       # Instruction read bandwidth from this memory (bytes/s)
system.mem_ctrls.bw_write::writebacks      1039831785                       # Write bandwidth from this memory (bytes/s)
system.mem_ctrls.bw_write::total           1039831785                       # Write bandwidth from this memory (bytes/s)
system.mem_ctrls.bw_total::writebacks      1039831785                       # Total bandwidth to/from this memory (bytes/s)
system.mem_ctrls.bw_total::switch_cpus0.dtb.walker       265797                       # Total bandwidth to/from this memory (bytes/s)
system.mem_ctrls.bw_total::switch_cpus0.itb.walker        41117                       # Total bandwidth to/from this memory (bytes/s)
system.mem_ctrls.bw_total::switch_cpus0.inst      3844383                       # Total bandwidth to/from this memory (bytes/s)
system.mem_ctrls.bw_total::switch_cpus0.data    487529579                       # Total bandwidth to/from this memory (bytes/s)
system.mem_ctrls.bw_total::switch_cpus1.dtb.walker       602371                       # Total bandwidth to/from this memory (bytes/s)
system.mem_ctrls.bw_total::switch_cpus1.itb.walker       196675                       # Total bandwidth to/from this memory (bytes/s)
system.mem_ctrls.bw_total::switch_cpus1.inst      9782681                       # Total bandwidth to/from this memory (bytes/s)
system.mem_ctrls.bw_total::switch_cpus1.data     19935033                       # Total bandwidth to/from this memory (bytes/s)
system.mem_ctrls.bw_total::switch_cpus2.dtb.walker       755128                       # Total bandwidth to/from this memory (bytes/s)
system.mem_ctrls.bw_total::switch_cpus2.itb.walker        47355                       # Total bandwidth to/from this memory (bytes/s)
system.mem_ctrls.bw_total::switch_cpus2.inst      6406880                       # Total bandwidth to/from this memory (bytes/s)
system.mem_ctrls.bw_total::switch_cpus2.data    893063187                       # Total bandwidth to/from this memory (bytes/s)
system.mem_ctrls.bw_total::switch_cpus3.dtb.walker       250012                       # Total bandwidth to/from this memory (bytes/s)
system.mem_ctrls.bw_total::switch_cpus3.itb.walker       123224                       # Total bandwidth to/from this memory (bytes/s)
system.mem_ctrls.bw_total::switch_cpus3.inst      5937025                       # Total bandwidth to/from this memory (bytes/s)
system.mem_ctrls.bw_total::switch_cpus3.data     12529632                       # Total bandwidth to/from this memory (bytes/s)
system.mem_ctrls.bw_total::total           2481141863                       # Total bandwidth to/from this memory (bytes/s)
system.mem_ctrls.readReqs                    11322382                       # Number of read requests accepted
system.mem_ctrls.writeReqs                    8168521                       # Number of write requests accepted
system.mem_ctrls.readBursts                  11322382                       # Number of DRAM read bursts, including those serviced by the write queue
system.mem_ctrls.writeBursts                  8168521                       # Number of DRAM write bursts, including those merged in the write queue
system.mem_ctrls.bytesReadDRAM              724556288                       # Total number of bytes read from DRAM
system.mem_ctrls.bytesReadWrQ                   76160                       # Total number of bytes read from write queue
system.mem_ctrls.bytesWritten               522783808                       # Total number of bytes written to DRAM
system.mem_ctrls.bytesReadSys               724632448                       # Total read bytes from the system interface side
system.mem_ctrls.bytesWrittenSys            522785344                       # Total written bytes from the system interface side
system.mem_ctrls.servicedByWrQ                   1190                       # Number of DRAM read bursts serviced by the write queue
system.mem_ctrls.mergedWrBursts                     0                       # Number of DRAM write bursts merged with an existing one
system.mem_ctrls.neitherReadNorWriteReqs            0                       # Number of requests that are neither read nor write
system.mem_ctrls.perBankRdBursts::0            724550                       # Per bank write bursts
system.mem_ctrls.perBankRdBursts::1            711880                       # Per bank write bursts
system.mem_ctrls.perBankRdBursts::2            693865                       # Per bank write bursts
system.mem_ctrls.perBankRdBursts::3            689499                       # Per bank write bursts
system.mem_ctrls.perBankRdBursts::4            676560                       # Per bank write bursts
system.mem_ctrls.perBankRdBursts::5            707716                       # Per bank write bursts
system.mem_ctrls.perBankRdBursts::6            713516                       # Per bank write bursts
system.mem_ctrls.perBankRdBursts::7            753433                       # Per bank write bursts
system.mem_ctrls.perBankRdBursts::8            689069                       # Per bank write bursts
system.mem_ctrls.perBankRdBursts::9            706188                       # Per bank write bursts
system.mem_ctrls.perBankRdBursts::10           686528                       # Per bank write bursts
system.mem_ctrls.perBankRdBursts::11           739921                       # Per bank write bursts
system.mem_ctrls.perBankRdBursts::12           714853                       # Per bank write bursts
system.mem_ctrls.perBankRdBursts::13           704265                       # Per bank write bursts
system.mem_ctrls.perBankRdBursts::14           714544                       # Per bank write bursts
system.mem_ctrls.perBankRdBursts::15           694805                       # Per bank write bursts
system.mem_ctrls.perBankWrBursts::0            517698                       # Per bank write bursts
system.mem_ctrls.perBankWrBursts::1            505826                       # Per bank write bursts
system.mem_ctrls.perBankWrBursts::2            498368                       # Per bank write bursts
system.mem_ctrls.perBankWrBursts::3            505651                       # Per bank write bursts
system.mem_ctrls.perBankWrBursts::4            494810                       # Per bank write bursts
system.mem_ctrls.perBankWrBursts::5            518353                       # Per bank write bursts
system.mem_ctrls.perBankWrBursts::6            511723                       # Per bank write bursts
system.mem_ctrls.perBankWrBursts::7            535673                       # Per bank write bursts
system.mem_ctrls.perBankWrBursts::8            497101                       # Per bank write bursts
system.mem_ctrls.perBankWrBursts::9            516561                       # Per bank write bursts
system.mem_ctrls.perBankWrBursts::10           499197                       # Per bank write bursts
system.mem_ctrls.perBankWrBursts::11           528475                       # Per bank write bursts
system.mem_ctrls.perBankWrBursts::12           507531                       # Per bank write bursts
system.mem_ctrls.perBankWrBursts::13           506674                       # Per bank write bursts
system.mem_ctrls.perBankWrBursts::14           518848                       # Per bank write bursts
system.mem_ctrls.perBankWrBursts::15           506008                       # Per bank write bursts
system.mem_ctrls.numRdRetry                         0                       # Number of times read queue was full causing retry
system.mem_ctrls.numWrRetry                       570                       # Number of times write queue was full causing retry
system.mem_ctrls.totGap                  502759609500                       # Total gap between requests
system.mem_ctrls.readPktSize::0                     0                       # Read request sizes (log2)
system.mem_ctrls.readPktSize::1                     0                       # Read request sizes (log2)
system.mem_ctrls.readPktSize::2                     0                       # Read request sizes (log2)
system.mem_ctrls.readPktSize::3                     0                       # Read request sizes (log2)
system.mem_ctrls.readPktSize::4                     0                       # Read request sizes (log2)
system.mem_ctrls.readPktSize::5                     0                       # Read request sizes (log2)
system.mem_ctrls.readPktSize::6              11322382                       # Read request sizes (log2)
system.mem_ctrls.writePktSize::0                    0                       # Write request sizes (log2)
system.mem_ctrls.writePktSize::1                    0                       # Write request sizes (log2)
system.mem_ctrls.writePktSize::2                    0                       # Write request sizes (log2)
system.mem_ctrls.writePktSize::3                    0                       # Write request sizes (log2)
system.mem_ctrls.writePktSize::4                    0                       # Write request sizes (log2)
system.mem_ctrls.writePktSize::5                    0                       # Write request sizes (log2)
system.mem_ctrls.writePktSize::6              8168521                       # Write request sizes (log2)
system.mem_ctrls.rdQLenPdf::0                 4270723                       # What read queue length does an incoming req see
system.mem_ctrls.rdQLenPdf::1                 4293652                       # What read queue length does an incoming req see
system.mem_ctrls.rdQLenPdf::2                 1700791                       # What read queue length does an incoming req see
system.mem_ctrls.rdQLenPdf::3                  723604                       # What read queue length does an incoming req see
system.mem_ctrls.rdQLenPdf::4                  218801                       # What read queue length does an incoming req see
system.mem_ctrls.rdQLenPdf::5                   90747                       # What read queue length does an incoming req see
system.mem_ctrls.rdQLenPdf::6                   14288                       # What read queue length does an incoming req see
system.mem_ctrls.rdQLenPdf::7                    5349                       # What read queue length does an incoming req see
system.mem_ctrls.rdQLenPdf::8                    1935                       # What read queue length does an incoming req see
system.mem_ctrls.rdQLenPdf::9                     883                       # What read queue length does an incoming req see
system.mem_ctrls.rdQLenPdf::10                    253                       # What read queue length does an incoming req see
system.mem_ctrls.rdQLenPdf::11                    104                       # What read queue length does an incoming req see
system.mem_ctrls.rdQLenPdf::12                     46                       # What read queue length does an incoming req see
system.mem_ctrls.rdQLenPdf::13                     14                       # What read queue length does an incoming req see
system.mem_ctrls.rdQLenPdf::14                      2                       # What read queue length does an incoming req see
system.mem_ctrls.rdQLenPdf::15                      0                       # What read queue length does an incoming req see
system.mem_ctrls.rdQLenPdf::16                      0                       # What read queue length does an incoming req see
system.mem_ctrls.rdQLenPdf::17                      0                       # What read queue length does an incoming req see
system.mem_ctrls.rdQLenPdf::18                      0                       # What read queue length does an incoming req see
system.mem_ctrls.rdQLenPdf::19                      0                       # What read queue length does an incoming req see
system.mem_ctrls.rdQLenPdf::20                      0                       # What read queue length does an incoming req see
system.mem_ctrls.rdQLenPdf::21                      0                       # What read queue length does an incoming req see
system.mem_ctrls.rdQLenPdf::22                      0                       # What read queue length does an incoming req see
system.mem_ctrls.rdQLenPdf::23                      0                       # What read queue length does an incoming req see
system.mem_ctrls.rdQLenPdf::24                      0                       # What read queue length does an incoming req see
system.mem_ctrls.rdQLenPdf::25                      0                       # What read queue length does an incoming req see
system.mem_ctrls.rdQLenPdf::26                      0                       # What read queue length does an incoming req see
system.mem_ctrls.rdQLenPdf::27                      0                       # What read queue length does an incoming req see
system.mem_ctrls.rdQLenPdf::28                      0                       # What read queue length does an incoming req see
system.mem_ctrls.rdQLenPdf::29                      0                       # What read queue length does an incoming req see
system.mem_ctrls.rdQLenPdf::30                      0                       # What read queue length does an incoming req see
system.mem_ctrls.rdQLenPdf::31                      0                       # What read queue length does an incoming req see
system.mem_ctrls.wrQLenPdf::0                       0                       # What write queue length does an incoming req see
system.mem_ctrls.wrQLenPdf::1                       0                       # What write queue length does an incoming req see
system.mem_ctrls.wrQLenPdf::2                       0                       # What write queue length does an incoming req see
system.mem_ctrls.wrQLenPdf::3                       1                       # What write queue length does an incoming req see
system.mem_ctrls.wrQLenPdf::4                       1                       # What write queue length does an incoming req see
system.mem_ctrls.wrQLenPdf::5                       1                       # What write queue length does an incoming req see
system.mem_ctrls.wrQLenPdf::6                       1                       # What write queue length does an incoming req see
system.mem_ctrls.wrQLenPdf::7                       1                       # What write queue length does an incoming req see
system.mem_ctrls.wrQLenPdf::8                       1                       # What write queue length does an incoming req see
system.mem_ctrls.wrQLenPdf::9                       1                       # What write queue length does an incoming req see
system.mem_ctrls.wrQLenPdf::10                      1                       # What write queue length does an incoming req see
system.mem_ctrls.wrQLenPdf::11                      1                       # What write queue length does an incoming req see
system.mem_ctrls.wrQLenPdf::12                      1                       # What write queue length does an incoming req see
system.mem_ctrls.wrQLenPdf::13                      1                       # What write queue length does an incoming req see
system.mem_ctrls.wrQLenPdf::14                      1                       # What write queue length does an incoming req see
system.mem_ctrls.wrQLenPdf::15                  11798                       # What write queue length does an incoming req see
system.mem_ctrls.wrQLenPdf::16                  14089                       # What write queue length does an incoming req see
system.mem_ctrls.wrQLenPdf::17                 169342                       # What write queue length does an incoming req see
system.mem_ctrls.wrQLenPdf::18                 343488                       # What write queue length does an incoming req see
system.mem_ctrls.wrQLenPdf::19                 444818                       # What write queue length does an incoming req see
system.mem_ctrls.wrQLenPdf::20                 496308                       # What write queue length does an incoming req see
system.mem_ctrls.wrQLenPdf::21                 519318                       # What write queue length does an incoming req see
system.mem_ctrls.wrQLenPdf::22                 531824                       # What write queue length does an incoming req see
system.mem_ctrls.wrQLenPdf::23                 540609                       # What write queue length does an incoming req see
system.mem_ctrls.wrQLenPdf::24                 544690                       # What write queue length does an incoming req see
system.mem_ctrls.wrQLenPdf::25                 548139                       # What write queue length does an incoming req see
system.mem_ctrls.wrQLenPdf::26                 554327                       # What write queue length does an incoming req see
system.mem_ctrls.wrQLenPdf::27                 549433                       # What write queue length does an incoming req see
system.mem_ctrls.wrQLenPdf::28                 555297                       # What write queue length does an incoming req see
system.mem_ctrls.wrQLenPdf::29                 589820                       # What write queue length does an incoming req see
system.mem_ctrls.wrQLenPdf::30                 567465                       # What write queue length does an incoming req see
system.mem_ctrls.wrQLenPdf::31                 588223                       # What write queue length does an incoming req see
system.mem_ctrls.wrQLenPdf::32                 518807                       # What write queue length does an incoming req see
system.mem_ctrls.wrQLenPdf::33                  10912                       # What write queue length does an incoming req see
system.mem_ctrls.wrQLenPdf::34                   6165                       # What write queue length does an incoming req see
system.mem_ctrls.wrQLenPdf::35                   4660                       # What write queue length does an incoming req see
system.mem_ctrls.wrQLenPdf::36                   3638                       # What write queue length does an incoming req see
system.mem_ctrls.wrQLenPdf::37                   3331                       # What write queue length does an incoming req see
system.mem_ctrls.wrQLenPdf::38                   2779                       # What write queue length does an incoming req see
system.mem_ctrls.wrQLenPdf::39                   2569                       # What write queue length does an incoming req see
system.mem_ctrls.wrQLenPdf::40                   2630                       # What write queue length does an incoming req see
system.mem_ctrls.wrQLenPdf::41                   2339                       # What write queue length does an incoming req see
system.mem_ctrls.wrQLenPdf::42                   2199                       # What write queue length does an incoming req see
system.mem_ctrls.wrQLenPdf::43                   2107                       # What write queue length does an incoming req see
system.mem_ctrls.wrQLenPdf::44                   2125                       # What write queue length does an incoming req see
system.mem_ctrls.wrQLenPdf::45                   1974                       # What write queue length does an incoming req see
system.mem_ctrls.wrQLenPdf::46                   2007                       # What write queue length does an incoming req see
system.mem_ctrls.wrQLenPdf::47                   2059                       # What write queue length does an incoming req see
system.mem_ctrls.wrQLenPdf::48                   2046                       # What write queue length does an incoming req see
system.mem_ctrls.wrQLenPdf::49                   2164                       # What write queue length does an incoming req see
system.mem_ctrls.wrQLenPdf::50                   2151                       # What write queue length does an incoming req see
system.mem_ctrls.wrQLenPdf::51                   2082                       # What write queue length does an incoming req see
system.mem_ctrls.wrQLenPdf::52                   2136                       # What write queue length does an incoming req see
system.mem_ctrls.wrQLenPdf::53                   2204                       # What write queue length does an incoming req see
system.mem_ctrls.wrQLenPdf::54                   2074                       # What write queue length does an incoming req see
system.mem_ctrls.wrQLenPdf::55                   2342                       # What write queue length does an incoming req see
system.mem_ctrls.wrQLenPdf::56                   1883                       # What write queue length does an incoming req see
system.mem_ctrls.wrQLenPdf::57                   1560                       # What write queue length does an incoming req see
system.mem_ctrls.wrQLenPdf::58                   1456                       # What write queue length does an incoming req see
system.mem_ctrls.wrQLenPdf::59                   1478                       # What write queue length does an incoming req see
system.mem_ctrls.wrQLenPdf::60                   1158                       # What write queue length does an incoming req see
system.mem_ctrls.wrQLenPdf::61                   1227                       # What write queue length does an incoming req see
system.mem_ctrls.wrQLenPdf::62                   1260                       # What write queue length does an incoming req see
system.mem_ctrls.wrQLenPdf::63                   1999                       # What write queue length does an incoming req see
system.mem_ctrls.bytesPerActivate::samples      7644725                       # Bytes accessed per row activation
system.mem_ctrls.bytesPerActivate::mean    163.163694                       # Bytes accessed per row activation
system.mem_ctrls.bytesPerActivate::gmean   101.225932                       # Bytes accessed per row activation
system.mem_ctrls.bytesPerActivate::stdev   223.199912                       # Bytes accessed per row activation
system.mem_ctrls.bytesPerActivate::0-127      5392630     70.54%     70.54% # Bytes accessed per row activation
system.mem_ctrls.bytesPerActivate::128-255       922172     12.06%     82.60% # Bytes accessed per row activation
system.mem_ctrls.bytesPerActivate::256-383       342842      4.48%     87.09% # Bytes accessed per row activation
system.mem_ctrls.bytesPerActivate::384-511       242718      3.17%     90.26% # Bytes accessed per row activation
system.mem_ctrls.bytesPerActivate::512-639       191774      2.51%     92.77% # Bytes accessed per row activation
system.mem_ctrls.bytesPerActivate::640-767       147325      1.93%     94.70% # Bytes accessed per row activation
system.mem_ctrls.bytesPerActivate::768-895       110337      1.44%     96.14% # Bytes accessed per row activation
system.mem_ctrls.bytesPerActivate::896-1023        87430      1.14%     97.29% # Bytes accessed per row activation
system.mem_ctrls.bytesPerActivate::1024-1151       207497      2.71%    100.00% # Bytes accessed per row activation
system.mem_ctrls.bytesPerActivate::total      7644725                       # Bytes accessed per row activation
system.mem_ctrls.rdPerTurnAround::samples       506436                       # Reads before turning the bus around for writes
system.mem_ctrls.rdPerTurnAround::mean      22.382641                       # Reads before turning the bus around for writes
system.mem_ctrls.rdPerTurnAround::stdev     24.976328                       # Reads before turning the bus around for writes
system.mem_ctrls.rdPerTurnAround::0-1023       506435    100.00%    100.00% # Reads before turning the bus around for writes
system.mem_ctrls.rdPerTurnAround::16384-17407            1      0.00%    100.00% # Reads before turning the bus around for writes
system.mem_ctrls.rdPerTurnAround::total        506436                       # Reads before turning the bus around for writes
system.mem_ctrls.wrPerTurnAround::samples       506436                       # Writes before turning the bus around for reads
system.mem_ctrls.wrPerTurnAround::mean      16.129377                       # Writes before turning the bus around for reads
system.mem_ctrls.wrPerTurnAround::gmean     16.102527                       # Writes before turning the bus around for reads
system.mem_ctrls.wrPerTurnAround::stdev      1.406407                       # Writes before turning the bus around for reads
system.mem_ctrls.wrPerTurnAround::16-19        503099     99.34%     99.34% # Writes before turning the bus around for reads
system.mem_ctrls.wrPerTurnAround::20-23          2419      0.48%     99.82% # Writes before turning the bus around for reads
system.mem_ctrls.wrPerTurnAround::24-27           142      0.03%     99.85% # Writes before turning the bus around for reads
system.mem_ctrls.wrPerTurnAround::28-31           128      0.03%     99.87% # Writes before turning the bus around for reads
system.mem_ctrls.wrPerTurnAround::32-35           228      0.05%     99.92% # Writes before turning the bus around for reads
system.mem_ctrls.wrPerTurnAround::36-39            89      0.02%     99.93% # Writes before turning the bus around for reads
system.mem_ctrls.wrPerTurnAround::40-43            57      0.01%     99.95% # Writes before turning the bus around for reads
system.mem_ctrls.wrPerTurnAround::44-47            50      0.01%     99.96% # Writes before turning the bus around for reads
system.mem_ctrls.wrPerTurnAround::48-51            36      0.01%     99.96% # Writes before turning the bus around for reads
system.mem_ctrls.wrPerTurnAround::52-55            17      0.00%     99.97% # Writes before turning the bus around for reads
system.mem_ctrls.wrPerTurnAround::56-59            14      0.00%     99.97% # Writes before turning the bus around for reads
system.mem_ctrls.wrPerTurnAround::60-63            21      0.00%     99.97% # Writes before turning the bus around for reads
system.mem_ctrls.wrPerTurnAround::64-67            72      0.01%     99.99% # Writes before turning the bus around for reads
system.mem_ctrls.wrPerTurnAround::68-71            13      0.00%     99.99% # Writes before turning the bus around for reads
system.mem_ctrls.wrPerTurnAround::72-75             4      0.00%     99.99% # Writes before turning the bus around for reads
system.mem_ctrls.wrPerTurnAround::76-79             6      0.00%     99.99% # Writes before turning the bus around for reads
system.mem_ctrls.wrPerTurnAround::80-83            10      0.00%     99.99% # Writes before turning the bus around for reads
system.mem_ctrls.wrPerTurnAround::84-87             2      0.00%     99.99% # Writes before turning the bus around for reads
system.mem_ctrls.wrPerTurnAround::88-91             5      0.00%    100.00% # Writes before turning the bus around for reads
system.mem_ctrls.wrPerTurnAround::92-95             3      0.00%    100.00% # Writes before turning the bus around for reads
system.mem_ctrls.wrPerTurnAround::96-99             5      0.00%    100.00% # Writes before turning the bus around for reads
system.mem_ctrls.wrPerTurnAround::100-103            1      0.00%    100.00% # Writes before turning the bus around for reads
system.mem_ctrls.wrPerTurnAround::104-107            3      0.00%    100.00% # Writes before turning the bus around for reads
system.mem_ctrls.wrPerTurnAround::108-111            4      0.00%    100.00% # Writes before turning the bus around for reads
system.mem_ctrls.wrPerTurnAround::112-115            2      0.00%    100.00% # Writes before turning the bus around for reads
system.mem_ctrls.wrPerTurnAround::116-119            1      0.00%    100.00% # Writes before turning the bus around for reads
system.mem_ctrls.wrPerTurnAround::120-123            1      0.00%    100.00% # Writes before turning the bus around for reads
system.mem_ctrls.wrPerTurnAround::124-127            1      0.00%    100.00% # Writes before turning the bus around for reads
system.mem_ctrls.wrPerTurnAround::128-131            2      0.00%    100.00% # Writes before turning the bus around for reads
system.mem_ctrls.wrPerTurnAround::144-147            1      0.00%    100.00% # Writes before turning the bus around for reads
system.mem_ctrls.wrPerTurnAround::total        506436                       # Writes before turning the bus around for reads
system.mem_ctrls.totQLat                 372895548249                       # Total ticks spent queuing
system.mem_ctrls.totMemAccLat            585167898249                       # Total ticks spent from burst creation until serviced by the DRAM
system.mem_ctrls.totBusLat                56605960000                       # Total ticks spent in databus transfers
system.mem_ctrls.avgQLat                     32937.83                       # Average queueing delay per DRAM burst
system.mem_ctrls.avgBusLat                    5000.00                       # Average bus latency per DRAM burst
system.mem_ctrls.avgMemAccLat                51687.83                       # Average memory access latency per DRAM burst
system.mem_ctrls.avgRdBW                      1441.16                       # Average DRAM read bandwidth in MiByte/s
system.mem_ctrls.avgWrBW                      1039.83                       # Average achieved write bandwidth in MiByte/s
system.mem_ctrls.avgRdBWSys                   1441.31                       # Average system read bandwidth in MiByte/s
system.mem_ctrls.avgWrBWSys                   1039.83                       # Average system write bandwidth in MiByte/s
system.mem_ctrls.peakBW                      12800.00                       # Theoretical peak bandwidth in MiByte/s
system.mem_ctrls.busUtil                        19.38                       # Data bus utilization in percentage
system.mem_ctrls.busUtilRead                    11.26                       # Data bus utilization in percentage for reads
system.mem_ctrls.busUtilWrite                    8.12                       # Data bus utilization in percentage for writes
system.mem_ctrls.avgRdQLen                       2.27                       # Average read queue length when enqueuing
system.mem_ctrls.avgWrQLen                      26.64                       # Average write queue length when enqueuing
system.mem_ctrls.readRowHits                  7102528                       # Number of row buffer hits during reads
system.mem_ctrls.writeRowHits                 4742434                       # Number of row buffer hits during writes
system.mem_ctrls.readRowHitRate                 62.74                       # Row buffer hit rate for reads
system.mem_ctrls.writeRowHitRate                58.06                       # Row buffer hit rate for writes
system.mem_ctrls.avgGap                      25794.58                       # Average gap between requests
system.mem_ctrls.pageHitRate                    60.78                       # Row buffer hit rate, read and write combined
system.mem_ctrls_0.actEnergy              28804348440                       # Energy for activate commands per rank (pJ)
system.mem_ctrls_0.preEnergy              15716658375                       # Energy for precharge commands per rank (pJ)
system.mem_ctrls_0.readEnergy             44291317200                       # Energy for read commands per rank (pJ)
system.mem_ctrls_0.writeEnergy            26490719520                       # Energy for write commands per rank (pJ)
system.mem_ctrls_0.refreshEnergy          32872809840                       # Energy for refresh commands per rank (pJ)
system.mem_ctrls_0.actBackEnergy         324725438925                       # Energy for active background per rank (pJ)
system.mem_ctrls_0.preBackEnergy          17130564000                       # Energy for precharge background per rank (pJ)
system.mem_ctrls_0.totalEnergy           490031856300                       # Total energy per rank (pJ)
system.mem_ctrls_0.averagePower            973.645957                       # Core power per rank (mW)
system.mem_ctrls_0.memoryStateTime::IDLE  25833063750                       # Time in different power states
system.mem_ctrls_0.memoryStateTime::REF   16788200000                       # Time in different power states
system.mem_ctrls_0.memoryStateTime::PRE_PDN            0                       # Time in different power states
system.mem_ctrls_0.memoryStateTime::ACT  460136960500                       # Time in different power states
system.mem_ctrls_0.memoryStateTime::ACT_PDN            0                       # Time in different power states
system.mem_ctrls_1.actEnergy              29021048280                       # Energy for activate commands per rank (pJ)
system.mem_ctrls_1.preEnergy              15834897375                       # Energy for precharge commands per rank (pJ)
system.mem_ctrls_1.readEnergy             44123773200                       # Energy for read commands per rank (pJ)
system.mem_ctrls_1.writeEnergy            26440693920                       # Energy for write commands per rank (pJ)
system.mem_ctrls_1.refreshEnergy          32872809840                       # Energy for refresh commands per rank (pJ)
system.mem_ctrls_1.actBackEnergy         323957277855                       # Energy for active background per rank (pJ)
system.mem_ctrls_1.preBackEnergy          17804385000                       # Energy for precharge background per rank (pJ)
system.mem_ctrls_1.totalEnergy           490054885470                       # Total energy per rank (pJ)
system.mem_ctrls_1.averagePower            973.691728                       # Core power per rank (mW)
system.mem_ctrls_1.memoryStateTime::IDLE  26949201250                       # Time in different power states
system.mem_ctrls_1.memoryStateTime::REF   16788200000                       # Time in different power states
system.mem_ctrls_1.memoryStateTime::PRE_PDN            0                       # Time in different power states
system.mem_ctrls_1.memoryStateTime::ACT  459020813750                       # Time in different power states
system.mem_ctrls_1.memoryStateTime::ACT_PDN            0                       # Time in different power states
system.realview.nvmem.pwrStateResidencyTicks::UNDEFINED 3739148452000                       # Cumulative time (in ticks) in various power states
system.realview.vram.pwrStateResidencyTicks::UNDEFINED 3739148452000                       # Cumulative time (in ticks) in various power states
system.pwrStateResidencyTicks::UNDEFINED 3739148452000                       # Cumulative time (in ticks) in various power states
system.bridge.pwrStateResidencyTicks::UNDEFINED 3739148452000                       # Cumulative time (in ticks) in various power states
system.cf0.dma_read_full_pages                      0                       # Number of full page size DMA reads (not PRD).
system.cf0.dma_read_bytes                           0                       # Number of bytes transfered via DMA reads (not PRD).
system.cf0.dma_read_txs                             0                       # Number of DMA read transactions (not PRD).
system.cf0.dma_write_full_pages                  2170                       # Number of full page size DMA writes.
system.cf0.dma_write_bytes                    8960000                       # Number of bytes transfered via DMA writes.
system.cf0.dma_write_txs                         2236                       # Number of DMA write transactions.
system.cpu_voltage_domain.voltage                   1                       # Voltage in Volts
system.cpu_clk_domain.clock                       500                       # Clock period in ticks
system.cpu0.dstage2_mmu.stage2_tlb.walker.pwrStateResidencyTicks::UNDEFINED 3739148452000                       # Cumulative time (in ticks) in various power states
system.cpu0.dstage2_mmu.stage2_tlb.walker.walks            0                       # Table walker walks requested
system.cpu0.dstage2_mmu.stage2_tlb.walker.walkRequestOrigin_Requested::Data            0                       # Table walker requests started/completed, data/inst
system.cpu0.dstage2_mmu.stage2_tlb.walker.walkRequestOrigin_Requested::Inst            0                       # Table walker requests started/completed, data/inst
system.cpu0.dstage2_mmu.stage2_tlb.walker.walkRequestOrigin_Requested::total            0                       # Table walker requests started/completed, data/inst
system.cpu0.dstage2_mmu.stage2_tlb.walker.walkRequestOrigin_Completed::Data            0                       # Table walker requests started/completed, data/inst
system.cpu0.dstage2_mmu.stage2_tlb.walker.walkRequestOrigin_Completed::Inst            0                       # Table walker requests started/completed, data/inst
system.cpu0.dstage2_mmu.stage2_tlb.walker.walkRequestOrigin_Completed::total            0                       # Table walker requests started/completed, data/inst
system.cpu0.dstage2_mmu.stage2_tlb.walker.walkRequestOrigin::total            0                       # Table walker requests started/completed, data/inst
system.cpu0.dstage2_mmu.stage2_tlb.inst_hits            0                       # ITB inst hits
system.cpu0.dstage2_mmu.stage2_tlb.inst_misses            0                       # ITB inst misses
system.cpu0.dstage2_mmu.stage2_tlb.read_hits            0                       # DTB read hits
system.cpu0.dstage2_mmu.stage2_tlb.read_misses            0                       # DTB read misses
system.cpu0.dstage2_mmu.stage2_tlb.write_hits            0                       # DTB write hits
system.cpu0.dstage2_mmu.stage2_tlb.write_misses            0                       # DTB write misses
system.cpu0.dstage2_mmu.stage2_tlb.flush_tlb            0                       # Number of times complete TLB was flushed
system.cpu0.dstage2_mmu.stage2_tlb.flush_tlb_mva            0                       # Number of times TLB was flushed by MVA
system.cpu0.dstage2_mmu.stage2_tlb.flush_tlb_mva_asid            0                       # Number of times TLB was flushed by MVA & ASID
system.cpu0.dstage2_mmu.stage2_tlb.flush_tlb_asid            0                       # Number of times TLB was flushed by ASID
system.cpu0.dstage2_mmu.stage2_tlb.flush_entries            0                       # Number of entries that have been flushed from TLB
system.cpu0.dstage2_mmu.stage2_tlb.align_faults            0                       # Number of TLB faults due to alignment restrictions
system.cpu0.dstage2_mmu.stage2_tlb.prefetch_faults            0                       # Number of TLB faults due to prefetch
system.cpu0.dstage2_mmu.stage2_tlb.domain_faults            0                       # Number of TLB faults due to domain restrictions
system.cpu0.dstage2_mmu.stage2_tlb.perms_faults            0                       # Number of TLB faults due to permissions restrictions
system.cpu0.dstage2_mmu.stage2_tlb.read_accesses            0                       # DTB read accesses
system.cpu0.dstage2_mmu.stage2_tlb.write_accesses            0                       # DTB write accesses
system.cpu0.dstage2_mmu.stage2_tlb.inst_accesses            0                       # ITB inst accesses
system.cpu0.dstage2_mmu.stage2_tlb.hits             0                       # DTB hits
system.cpu0.dstage2_mmu.stage2_tlb.misses            0                       # DTB misses
system.cpu0.dstage2_mmu.stage2_tlb.accesses            0                       # DTB accesses
system.cpu0.dtb.walker.pwrStateResidencyTicks::UNDEFINED 3739148452000                       # Cumulative time (in ticks) in various power states
system.cpu0.dtb.walker.walks                        0                       # Table walker walks requested
system.cpu0.dtb.walker.walkRequestOrigin_Requested::Data            0                       # Table walker requests started/completed, data/inst
system.cpu0.dtb.walker.walkRequestOrigin_Requested::Inst            0                       # Table walker requests started/completed, data/inst
system.cpu0.dtb.walker.walkRequestOrigin_Requested::total            0                       # Table walker requests started/completed, data/inst
system.cpu0.dtb.walker.walkRequestOrigin_Completed::Data            0                       # Table walker requests started/completed, data/inst
system.cpu0.dtb.walker.walkRequestOrigin_Completed::Inst            0                       # Table walker requests started/completed, data/inst
system.cpu0.dtb.walker.walkRequestOrigin_Completed::total            0                       # Table walker requests started/completed, data/inst
system.cpu0.dtb.walker.walkRequestOrigin::total            0                       # Table walker requests started/completed, data/inst
system.cpu0.dtb.inst_hits                           0                       # ITB inst hits
system.cpu0.dtb.inst_misses                         0                       # ITB inst misses
system.cpu0.dtb.read_hits                           0                       # DTB read hits
system.cpu0.dtb.read_misses                         0                       # DTB read misses
system.cpu0.dtb.write_hits                          0                       # DTB write hits
system.cpu0.dtb.write_misses                        0                       # DTB write misses
system.cpu0.dtb.flush_tlb                           0                       # Number of times complete TLB was flushed
system.cpu0.dtb.flush_tlb_mva                       0                       # Number of times TLB was flushed by MVA
system.cpu0.dtb.flush_tlb_mva_asid                  0                       # Number of times TLB was flushed by MVA & ASID
system.cpu0.dtb.flush_tlb_asid                      0                       # Number of times TLB was flushed by ASID
system.cpu0.dtb.flush_entries                       0                       # Number of entries that have been flushed from TLB
system.cpu0.dtb.align_faults                        0                       # Number of TLB faults due to alignment restrictions
system.cpu0.dtb.prefetch_faults                     0                       # Number of TLB faults due to prefetch
system.cpu0.dtb.domain_faults                       0                       # Number of TLB faults due to domain restrictions
system.cpu0.dtb.perms_faults                        0                       # Number of TLB faults due to permissions restrictions
system.cpu0.dtb.read_accesses                       0                       # DTB read accesses
system.cpu0.dtb.write_accesses                      0                       # DTB write accesses
system.cpu0.dtb.inst_accesses                       0                       # ITB inst accesses
system.cpu0.dtb.hits                                0                       # DTB hits
system.cpu0.dtb.misses                              0                       # DTB misses
system.cpu0.dtb.accesses                            0                       # DTB accesses
system.cpu0.istage2_mmu.stage2_tlb.walker.pwrStateResidencyTicks::UNDEFINED 3739148452000                       # Cumulative time (in ticks) in various power states
system.cpu0.istage2_mmu.stage2_tlb.walker.walks            0                       # Table walker walks requested
system.cpu0.istage2_mmu.stage2_tlb.walker.walkRequestOrigin_Requested::Data            0                       # Table walker requests started/completed, data/inst
system.cpu0.istage2_mmu.stage2_tlb.walker.walkRequestOrigin_Requested::Inst            0                       # Table walker requests started/completed, data/inst
system.cpu0.istage2_mmu.stage2_tlb.walker.walkRequestOrigin_Requested::total            0                       # Table walker requests started/completed, data/inst
system.cpu0.istage2_mmu.stage2_tlb.walker.walkRequestOrigin_Completed::Data            0                       # Table walker requests started/completed, data/inst
system.cpu0.istage2_mmu.stage2_tlb.walker.walkRequestOrigin_Completed::Inst            0                       # Table walker requests started/completed, data/inst
system.cpu0.istage2_mmu.stage2_tlb.walker.walkRequestOrigin_Completed::total            0                       # Table walker requests started/completed, data/inst
system.cpu0.istage2_mmu.stage2_tlb.walker.walkRequestOrigin::total            0                       # Table walker requests started/completed, data/inst
system.cpu0.istage2_mmu.stage2_tlb.inst_hits            0                       # ITB inst hits
system.cpu0.istage2_mmu.stage2_tlb.inst_misses            0                       # ITB inst misses
system.cpu0.istage2_mmu.stage2_tlb.read_hits            0                       # DTB read hits
system.cpu0.istage2_mmu.stage2_tlb.read_misses            0                       # DTB read misses
system.cpu0.istage2_mmu.stage2_tlb.write_hits            0                       # DTB write hits
system.cpu0.istage2_mmu.stage2_tlb.write_misses            0                       # DTB write misses
system.cpu0.istage2_mmu.stage2_tlb.flush_tlb            0                       # Number of times complete TLB was flushed
system.cpu0.istage2_mmu.stage2_tlb.flush_tlb_mva            0                       # Number of times TLB was flushed by MVA
system.cpu0.istage2_mmu.stage2_tlb.flush_tlb_mva_asid            0                       # Number of times TLB was flushed by MVA & ASID
system.cpu0.istage2_mmu.stage2_tlb.flush_tlb_asid            0                       # Number of times TLB was flushed by ASID
system.cpu0.istage2_mmu.stage2_tlb.flush_entries            0                       # Number of entries that have been flushed from TLB
system.cpu0.istage2_mmu.stage2_tlb.align_faults            0                       # Number of TLB faults due to alignment restrictions
system.cpu0.istage2_mmu.stage2_tlb.prefetch_faults            0                       # Number of TLB faults due to prefetch
system.cpu0.istage2_mmu.stage2_tlb.domain_faults            0                       # Number of TLB faults due to domain restrictions
system.cpu0.istage2_mmu.stage2_tlb.perms_faults            0                       # Number of TLB faults due to permissions restrictions
system.cpu0.istage2_mmu.stage2_tlb.read_accesses            0                       # DTB read accesses
system.cpu0.istage2_mmu.stage2_tlb.write_accesses            0                       # DTB write accesses
system.cpu0.istage2_mmu.stage2_tlb.inst_accesses            0                       # ITB inst accesses
system.cpu0.istage2_mmu.stage2_tlb.hits             0                       # DTB hits
system.cpu0.istage2_mmu.stage2_tlb.misses            0                       # DTB misses
system.cpu0.istage2_mmu.stage2_tlb.accesses            0                       # DTB accesses
system.cpu0.itb.walker.pwrStateResidencyTicks::UNDEFINED 3739148452000                       # Cumulative time (in ticks) in various power states
system.cpu0.itb.walker.walks                        0                       # Table walker walks requested
system.cpu0.itb.walker.walkRequestOrigin_Requested::Data            0                       # Table walker requests started/completed, data/inst
system.cpu0.itb.walker.walkRequestOrigin_Requested::Inst            0                       # Table walker requests started/completed, data/inst
system.cpu0.itb.walker.walkRequestOrigin_Requested::total            0                       # Table walker requests started/completed, data/inst
system.cpu0.itb.walker.walkRequestOrigin_Completed::Data            0                       # Table walker requests started/completed, data/inst
system.cpu0.itb.walker.walkRequestOrigin_Completed::Inst            0                       # Table walker requests started/completed, data/inst
system.cpu0.itb.walker.walkRequestOrigin_Completed::total            0                       # Table walker requests started/completed, data/inst
system.cpu0.itb.walker.walkRequestOrigin::total            0                       # Table walker requests started/completed, data/inst
system.cpu0.itb.inst_hits                           0                       # ITB inst hits
system.cpu0.itb.inst_misses                         0                       # ITB inst misses
system.cpu0.itb.read_hits                           0                       # DTB read hits
system.cpu0.itb.read_misses                         0                       # DTB read misses
system.cpu0.itb.write_hits                          0                       # DTB write hits
system.cpu0.itb.write_misses                        0                       # DTB write misses
system.cpu0.itb.flush_tlb                           0                       # Number of times complete TLB was flushed
system.cpu0.itb.flush_tlb_mva                       0                       # Number of times TLB was flushed by MVA
system.cpu0.itb.flush_tlb_mva_asid                  0                       # Number of times TLB was flushed by MVA & ASID
system.cpu0.itb.flush_tlb_asid                      0                       # Number of times TLB was flushed by ASID
system.cpu0.itb.flush_entries                       0                       # Number of entries that have been flushed from TLB
system.cpu0.itb.align_faults                        0                       # Number of TLB faults due to alignment restrictions
system.cpu0.itb.prefetch_faults                     0                       # Number of TLB faults due to prefetch
system.cpu0.itb.domain_faults                       0                       # Number of TLB faults due to domain restrictions
system.cpu0.itb.perms_faults                        0                       # Number of TLB faults due to permissions restrictions
system.cpu0.itb.read_accesses                       0                       # DTB read accesses
system.cpu0.itb.write_accesses                      0                       # DTB write accesses
system.cpu0.itb.inst_accesses                       0                       # ITB inst accesses
system.cpu0.itb.hits                                0                       # DTB hits
system.cpu0.itb.misses                              0                       # DTB misses
system.cpu0.itb.accesses                            0                       # DTB accesses
system.cpu0.pwrStateResidencyTicks::ON   503301256500                       # Cumulative time (in ticks) in various power states
system.cpu0.numCycles                               0                       # number of cpu cycles simulated
system.cpu0.numWorkItemsStarted                     0                       # number of work items this cpu started
system.cpu0.numWorkItemsCompleted                   0                       # number of work items this cpu completed
system.cpu0.kern.inst.arm                           0                       # number of arm instructions executed
system.cpu0.kern.inst.quiesce                     206                       # number of quiesce instructions executed
system.cpu0.committedInsts                          0                       # Number of instructions committed
system.cpu0.committedOps                            0                       # Number of ops (including micro ops) committed
system.cpu0.num_int_alu_accesses                    0                       # Number of integer alu accesses
system.cpu0.num_fp_alu_accesses                     0                       # Number of float alu accesses
system.cpu0.num_func_calls                          0                       # number of times a function call or return occured
system.cpu0.num_conditional_control_insts            0                       # number of instructions that are conditional controls
system.cpu0.num_int_insts                           0                       # number of integer instructions
system.cpu0.num_fp_insts                            0                       # number of float instructions
system.cpu0.num_int_register_reads                  0                       # number of times the integer registers were read
system.cpu0.num_int_register_writes                 0                       # number of times the integer registers were written
system.cpu0.num_fp_register_reads                   0                       # number of times the floating registers were read
system.cpu0.num_fp_register_writes                  0                       # number of times the floating registers were written
system.cpu0.num_mem_refs                            0                       # number of memory refs
system.cpu0.num_load_insts                          0                       # Number of load instructions
system.cpu0.num_store_insts                         0                       # Number of store instructions
system.cpu0.num_idle_cycles                         0                       # Number of idle cycles
system.cpu0.num_busy_cycles                         0                       # Number of busy cycles
system.cpu0.not_idle_fraction                       0                       # Percentage of non-idle cycles
system.cpu0.idle_fraction                           1                       # Percentage of idle cycles
system.cpu0.op_class::No_OpClass                    0                       # Class of executed instruction
system.cpu0.op_class::IntAlu                        0                       # Class of executed instruction
system.cpu0.op_class::IntMult                       0                       # Class of executed instruction
system.cpu0.op_class::IntDiv                        0                       # Class of executed instruction
system.cpu0.op_class::FloatAdd                      0                       # Class of executed instruction
system.cpu0.op_class::FloatCmp                      0                       # Class of executed instruction
system.cpu0.op_class::FloatCvt                      0                       # Class of executed instruction
system.cpu0.op_class::FloatMult                     0                       # Class of executed instruction
system.cpu0.op_class::FloatDiv                      0                       # Class of executed instruction
system.cpu0.op_class::FloatSqrt                     0                       # Class of executed instruction
system.cpu0.op_class::SimdAdd                       0                       # Class of executed instruction
system.cpu0.op_class::SimdAddAcc                    0                       # Class of executed instruction
system.cpu0.op_class::SimdAlu                       0                       # Class of executed instruction
system.cpu0.op_class::SimdCmp                       0                       # Class of executed instruction
system.cpu0.op_class::SimdCvt                       0                       # Class of executed instruction
system.cpu0.op_class::SimdMisc                      0                       # Class of executed instruction
system.cpu0.op_class::SimdMult                      0                       # Class of executed instruction
system.cpu0.op_class::SimdMultAcc                   0                       # Class of executed instruction
system.cpu0.op_class::SimdShift                     0                       # Class of executed instruction
system.cpu0.op_class::SimdShiftAcc                  0                       # Class of executed instruction
system.cpu0.op_class::SimdSqrt                      0                       # Class of executed instruction
system.cpu0.op_class::SimdFloatAdd                  0                       # Class of executed instruction
system.cpu0.op_class::SimdFloatAlu                  0                       # Class of executed instruction
system.cpu0.op_class::SimdFloatCmp                  0                       # Class of executed instruction
system.cpu0.op_class::SimdFloatCvt                  0                       # Class of executed instruction
system.cpu0.op_class::SimdFloatDiv                  0                       # Class of executed instruction
system.cpu0.op_class::SimdFloatMisc                 0                       # Class of executed instruction
system.cpu0.op_class::SimdFloatMult                 0                       # Class of executed instruction
system.cpu0.op_class::SimdFloatMultAcc              0                       # Class of executed instruction
system.cpu0.op_class::SimdFloatSqrt                 0                       # Class of executed instruction
system.cpu0.op_class::MemRead                       0                       # Class of executed instruction
system.cpu0.op_class::MemWrite                      0                       # Class of executed instruction
system.cpu0.op_class::IprAccess                     0                       # Class of executed instruction
system.cpu0.op_class::InstPrefetch                  0                       # Class of executed instruction
system.cpu0.op_class::total                         0                       # Class of executed instruction
system.cpu0.dcache.tags.pwrStateResidencyTicks::UNDEFINED 3739148452000                       # Cumulative time (in ticks) in various power states
system.cpu0.dcache.tags.replacements         11615850                       # number of replacements
system.cpu0.dcache.tags.tagsinuse         1022.086304                       # Cycle average of tags in use
system.cpu0.dcache.tags.total_refs          145407190                       # Total number of references to valid blocks.
system.cpu0.dcache.tags.sampled_refs         11616858                       # Sample count of references to valid blocks.
system.cpu0.dcache.tags.avg_refs            12.516912                       # Average number of references to valid blocks.
system.cpu0.dcache.tags.warmup_cycle     3237931514000                       # Cycle when the warmup percentage was hit.
system.cpu0.dcache.tags.occ_blocks::switch_cpus0.data  1022.086304                       # Average occupied blocks per requestor
system.cpu0.dcache.tags.occ_percent::switch_cpus0.data     0.998131                       # Average percentage of cache occupancy
system.cpu0.dcache.tags.occ_percent::total     0.998131                       # Average percentage of cache occupancy
system.cpu0.dcache.tags.occ_task_id_blocks::1024         1008                       # Occupied blocks per task id
system.cpu0.dcache.tags.age_task_id_blocks_1024::0           63                       # Occupied blocks per task id
system.cpu0.dcache.tags.age_task_id_blocks_1024::1          481                       # Occupied blocks per task id
system.cpu0.dcache.tags.age_task_id_blocks_1024::2          464                       # Occupied blocks per task id
system.cpu0.dcache.tags.occ_task_id_percent::1024     0.984375                       # Percentage of cache occupancy per task id
system.cpu0.dcache.tags.tag_accesses        359392621                       # Number of tag accesses
system.cpu0.dcache.tags.data_accesses       359392621                       # Number of data accesses
system.cpu0.dcache.pwrStateResidencyTicks::UNDEFINED 3739148452000                       # Cumulative time (in ticks) in various power states
system.cpu0.dcache.ReadReq_hits::switch_cpus0.data     99957550                       # number of ReadReq hits
system.cpu0.dcache.ReadReq_hits::total       99957550                       # number of ReadReq hits
system.cpu0.dcache.WriteReq_hits::switch_cpus0.data     44900134                       # number of WriteReq hits
system.cpu0.dcache.WriteReq_hits::total      44900134                       # number of WriteReq hits
system.cpu0.dcache.SoftPFReq_hits::switch_cpus0.data        36881                       # number of SoftPFReq hits
system.cpu0.dcache.SoftPFReq_hits::total        36881                       # number of SoftPFReq hits
system.cpu0.dcache.LoadLockedReq_hits::switch_cpus0.data       233117                       # number of LoadLockedReq hits
system.cpu0.dcache.LoadLockedReq_hits::total       233117                       # number of LoadLockedReq hits
system.cpu0.dcache.StoreCondReq_hits::switch_cpus0.data       230658                       # number of StoreCondReq hits
system.cpu0.dcache.StoreCondReq_hits::total       230658                       # number of StoreCondReq hits
system.cpu0.dcache.demand_hits::switch_cpus0.data    144857684                       # number of demand (read+write) hits
system.cpu0.dcache.demand_hits::total       144857684                       # number of demand (read+write) hits
system.cpu0.dcache.overall_hits::switch_cpus0.data    144894565                       # number of overall hits
system.cpu0.dcache.overall_hits::total      144894565                       # number of overall hits
system.cpu0.dcache.ReadReq_misses::switch_cpus0.data     26499517                       # number of ReadReq misses
system.cpu0.dcache.ReadReq_misses::total     26499517                       # number of ReadReq misses
system.cpu0.dcache.WriteReq_misses::switch_cpus0.data      1967282                       # number of WriteReq misses
system.cpu0.dcache.WriteReq_misses::total      1967282                       # number of WriteReq misses
system.cpu0.dcache.SoftPFReq_misses::switch_cpus0.data        48830                       # number of SoftPFReq misses
system.cpu0.dcache.SoftPFReq_misses::total        48830                       # number of SoftPFReq misses
system.cpu0.dcache.LoadLockedReq_misses::switch_cpus0.data         4484                       # number of LoadLockedReq misses
system.cpu0.dcache.LoadLockedReq_misses::total         4484                       # number of LoadLockedReq misses
system.cpu0.dcache.StoreCondReq_misses::switch_cpus0.data         4584                       # number of StoreCondReq misses
system.cpu0.dcache.StoreCondReq_misses::total         4584                       # number of StoreCondReq misses
system.cpu0.dcache.demand_misses::switch_cpus0.data     28466799                       # number of demand (read+write) misses
system.cpu0.dcache.demand_misses::total      28466799                       # number of demand (read+write) misses
system.cpu0.dcache.overall_misses::switch_cpus0.data     28515629                       # number of overall misses
system.cpu0.dcache.overall_misses::total     28515629                       # number of overall misses
system.cpu0.dcache.ReadReq_miss_latency::switch_cpus0.data 1458610705000                       # number of ReadReq miss cycles
system.cpu0.dcache.ReadReq_miss_latency::total 1458610705000                       # number of ReadReq miss cycles
system.cpu0.dcache.WriteReq_miss_latency::switch_cpus0.data 157954979159                       # number of WriteReq miss cycles
system.cpu0.dcache.WriteReq_miss_latency::total 157954979159                       # number of WriteReq miss cycles
system.cpu0.dcache.LoadLockedReq_miss_latency::switch_cpus0.data    163822000                       # number of LoadLockedReq miss cycles
system.cpu0.dcache.LoadLockedReq_miss_latency::total    163822000                       # number of LoadLockedReq miss cycles
system.cpu0.dcache.StoreCondReq_miss_latency::switch_cpus0.data     24365000                       # number of StoreCondReq miss cycles
system.cpu0.dcache.StoreCondReq_miss_latency::total     24365000                       # number of StoreCondReq miss cycles
system.cpu0.dcache.StoreCondFailReq_miss_latency::switch_cpus0.data       411500                       # number of StoreCondFailReq miss cycles
system.cpu0.dcache.StoreCondFailReq_miss_latency::total       411500                       # number of StoreCondFailReq miss cycles
system.cpu0.dcache.demand_miss_latency::switch_cpus0.data 1616565684159                       # number of demand (read+write) miss cycles
system.cpu0.dcache.demand_miss_latency::total 1616565684159                       # number of demand (read+write) miss cycles
system.cpu0.dcache.overall_miss_latency::switch_cpus0.data 1616565684159                       # number of overall miss cycles
system.cpu0.dcache.overall_miss_latency::total 1616565684159                       # number of overall miss cycles
system.cpu0.dcache.ReadReq_accesses::switch_cpus0.data    126457067                       # number of ReadReq accesses(hits+misses)
system.cpu0.dcache.ReadReq_accesses::total    126457067                       # number of ReadReq accesses(hits+misses)
system.cpu0.dcache.WriteReq_accesses::switch_cpus0.data     46867416                       # number of WriteReq accesses(hits+misses)
system.cpu0.dcache.WriteReq_accesses::total     46867416                       # number of WriteReq accesses(hits+misses)
system.cpu0.dcache.SoftPFReq_accesses::switch_cpus0.data        85711                       # number of SoftPFReq accesses(hits+misses)
system.cpu0.dcache.SoftPFReq_accesses::total        85711                       # number of SoftPFReq accesses(hits+misses)
system.cpu0.dcache.LoadLockedReq_accesses::switch_cpus0.data       237601                       # number of LoadLockedReq accesses(hits+misses)
system.cpu0.dcache.LoadLockedReq_accesses::total       237601                       # number of LoadLockedReq accesses(hits+misses)
system.cpu0.dcache.StoreCondReq_accesses::switch_cpus0.data       235242                       # number of StoreCondReq accesses(hits+misses)
system.cpu0.dcache.StoreCondReq_accesses::total       235242                       # number of StoreCondReq accesses(hits+misses)
system.cpu0.dcache.demand_accesses::switch_cpus0.data    173324483                       # number of demand (read+write) accesses
system.cpu0.dcache.demand_accesses::total    173324483                       # number of demand (read+write) accesses
system.cpu0.dcache.overall_accesses::switch_cpus0.data    173410194                       # number of overall (read+write) accesses
system.cpu0.dcache.overall_accesses::total    173410194                       # number of overall (read+write) accesses
system.cpu0.dcache.ReadReq_miss_rate::switch_cpus0.data     0.209553                       # miss rate for ReadReq accesses
system.cpu0.dcache.ReadReq_miss_rate::total     0.209553                       # miss rate for ReadReq accesses
system.cpu0.dcache.WriteReq_miss_rate::switch_cpus0.data     0.041975                       # miss rate for WriteReq accesses
system.cpu0.dcache.WriteReq_miss_rate::total     0.041975                       # miss rate for WriteReq accesses
system.cpu0.dcache.SoftPFReq_miss_rate::switch_cpus0.data     0.569705                       # miss rate for SoftPFReq accesses
system.cpu0.dcache.SoftPFReq_miss_rate::total     0.569705                       # miss rate for SoftPFReq accesses
system.cpu0.dcache.LoadLockedReq_miss_rate::switch_cpus0.data     0.018872                       # miss rate for LoadLockedReq accesses
system.cpu0.dcache.LoadLockedReq_miss_rate::total     0.018872                       # miss rate for LoadLockedReq accesses
system.cpu0.dcache.StoreCondReq_miss_rate::switch_cpus0.data     0.019486                       # miss rate for StoreCondReq accesses
system.cpu0.dcache.StoreCondReq_miss_rate::total     0.019486                       # miss rate for StoreCondReq accesses
system.cpu0.dcache.demand_miss_rate::switch_cpus0.data     0.164240                       # miss rate for demand accesses
system.cpu0.dcache.demand_miss_rate::total     0.164240                       # miss rate for demand accesses
system.cpu0.dcache.overall_miss_rate::switch_cpus0.data     0.164440                       # miss rate for overall accesses
system.cpu0.dcache.overall_miss_rate::total     0.164440                       # miss rate for overall accesses
system.cpu0.dcache.ReadReq_avg_miss_latency::switch_cpus0.data 55042.916631                       # average ReadReq miss latency
system.cpu0.dcache.ReadReq_avg_miss_latency::total 55042.916631                       # average ReadReq miss latency
system.cpu0.dcache.WriteReq_avg_miss_latency::switch_cpus0.data 80290.969550                       # average WriteReq miss latency
system.cpu0.dcache.WriteReq_avg_miss_latency::total 80290.969550                       # average WriteReq miss latency
system.cpu0.dcache.LoadLockedReq_avg_miss_latency::switch_cpus0.data 36534.790366                       # average LoadLockedReq miss latency
system.cpu0.dcache.LoadLockedReq_avg_miss_latency::total 36534.790366                       # average LoadLockedReq miss latency
system.cpu0.dcache.StoreCondReq_avg_miss_latency::switch_cpus0.data  5315.226876                       # average StoreCondReq miss latency
system.cpu0.dcache.StoreCondReq_avg_miss_latency::total  5315.226876                       # average StoreCondReq miss latency
system.cpu0.dcache.StoreCondFailReq_avg_miss_latency::switch_cpus0.data          inf                       # average StoreCondFailReq miss latency
system.cpu0.dcache.StoreCondFailReq_avg_miss_latency::total          inf                       # average StoreCondFailReq miss latency
system.cpu0.dcache.demand_avg_miss_latency::switch_cpus0.data 56787.757702                       # average overall miss latency
system.cpu0.dcache.demand_avg_miss_latency::total 56787.757702                       # average overall miss latency
system.cpu0.dcache.overall_avg_miss_latency::switch_cpus0.data 56690.514670                       # average overall miss latency
system.cpu0.dcache.overall_avg_miss_latency::total 56690.514670                       # average overall miss latency
system.cpu0.dcache.blocked_cycles::no_mshrs     44968876                       # number of cycles access was blocked
system.cpu0.dcache.blocked_cycles::no_targets        49521                       # number of cycles access was blocked
system.cpu0.dcache.blocked::no_mshrs          1071018                       # number of cycles access was blocked
system.cpu0.dcache.blocked::no_targets            580                       # number of cycles access was blocked
system.cpu0.dcache.avg_blocked_cycles::no_mshrs    41.987040                       # average number of cycles each access was blocked
system.cpu0.dcache.avg_blocked_cycles::no_targets    85.381034                       # average number of cycles each access was blocked
system.cpu0.dcache.writebacks::writebacks      4558245                       # number of writebacks
[...]
system.switch_cpus3.commit.op_class_0::SimdCmp            0      0.00%     64.73% # Class of committed instruction
system.switch_cpus3.commit.op_class_0::SimdCvt            0      0.00%     64.73% # Class of committed instruction
system.switch_cpus3.commit.op_class_0::SimdMisc            0      0.00%     64.73% # Class of committed instruction
system.switch_cpus3.commit.op_class_0::SimdMult            0      0.00%     64.73% # Class of committed instruction
system.switch_cpus3.commit.op_class_0::SimdMultAcc            0      0.00%     64.73% # Class of committed instruction
system.switch_cpus3.commit.op_class_0::SimdShift            0      0.00%     64.73% # Class of committed instruction
system.switch_cpus3.commit.op_class_0::SimdShiftAcc            0      0.00%     64.73% # Class of committed instruction
system.switch_cpus3.commit.op_class_0::SimdSqrt            0      0.00%     64.73% # Class of committed instruction
system.switch_cpus3.commit.op_class_0::SimdFloatAdd            0      0.00%     64.73% # Class of committed instruction
system.switch_cpus3.commit.op_class_0::SimdFloatAlu            0      0.00%     64.73% # Class of committed instruction
system.switch_cpus3.commit.op_class_0::SimdFloatCmp            0      0.00%     64.73% # Class of committed instruction
system.switch_cpus3.commit.op_class_0::SimdFloatCvt            0      0.00%     64.73% # Class of committed instruction
system.switch_cpus3.commit.op_class_0::SimdFloatDiv            0      0.00%     64.73% # Class of committed instruction
system.switch_cpus3.commit.op_class_0::SimdFloatMisc          824      0.00%     64.73% # Class of committed instruction
system.switch_cpus3.commit.op_class_0::SimdFloatMult            0      0.00%     64.73% # Class of committed instruction
system.switch_cpus3.commit.op_class_0::SimdFloatMultAcc            0      0.00%     64.73% # Class of committed instruction
system.switch_cpus3.commit.op_class_0::SimdFloatSqrt            0      0.00%     64.73% # Class of committed instruction
system.switch_cpus3.commit.op_class_0::MemRead    305219914     17.76%     82.49% # Class of committed instruction
system.switch_cpus3.commit.op_class_0::MemWrite    300866028     17.51%    100.00% # Class of committed instruction
system.switch_cpus3.commit.op_class_0::IprAccess            0      0.00%    100.00% # Class of committed instruction
system.switch_cpus3.commit.op_class_0::InstPrefetch            0      0.00%    100.00% # Class of committed instruction
system.switch_cpus3.commit.op_class_0::total   1718421515                       # Class of committed instruction
system.switch_cpus3.commit.bw_lim_events     67355978                       # number cycles where commit BW limit reached
system.switch_cpus3.rob.rob_reads          2773848927                       # The number of ROB reads
system.switch_cpus3.rob.rob_writes         3811819921                       # The number of ROB writes
system.switch_cpus3.timesIdled                4978109                       # Number of times that the entire CPU went into an idle state and unscheduled itself
system.switch_cpus3.idleCycles               21607824                       # Total number of cycles that the CPU has spent unscheduled due to idling
system.switch_cpus3.quiesceCycles             7950821                       # Total number of cycles that CPU has spent quiesced or waiting for an interrupt
system.switch_cpus3.committedInsts         1380175211                       # Number of Instructions Simulated
system.switch_cpus3.committedOps           1718396652                       # Number of Ops (including micro ops) Simulated
system.switch_cpus3.cpi                      0.722784                       # CPI: Cycles Per Instruction
system.switch_cpus3.cpi_total                0.722784                       # CPI: Total CPI of All Threads
system.switch_cpus3.ipc                      1.383539                       # IPC: Instructions Per Cycle
system.switch_cpus3.ipc_total                1.383539                       # IPC: Total IPC of All Threads
system.switch_cpus3.int_regfile_reads      2022715220                       # number of integer regfile reads
system.switch_cpus3.int_regfile_writes     1037669291                       # number of integer regfile writes
system.switch_cpus3.fp_regfile_reads             4221                       # number of floating regfile reads
system.switch_cpus3.fp_regfile_writes            2470                       # number of floating regfile writes
system.switch_cpus3.cc_regfile_reads       6320493730                       # number of cc regfile reads
system.switch_cpus3.cc_regfile_writes       989847369                       # number of cc regfile writes
system.switch_cpus3.misc_regfile_reads     2556634940                       # number of misc regfile reads
system.switch_cpus3.misc_regfile_writes       5719654                       # number of misc regfile writes
system.tol2bus.snoop_filter.tot_requests     69070900                       # Total number of requests made to the snoop filter.
system.tol2bus.snoop_filter.hit_single_requests     34812041                       # Number of requests hitting in the snoop filter with a single holder of the requested data.
system.tol2bus.snoop_filter.hit_multi_requests      1849227                       # Number of requests hitting in the snoop filter with multiple (>1) holders of the requested data.
system.tol2bus.snoop_filter.tot_snoops         243917                       # Total number of snoops made to the snoop filter.
system.tol2bus.snoop_filter.hit_single_snoops       221999                       # Number of snoops hitting in the snoop filter with a single holder of the requested data.
system.tol2bus.snoop_filter.hit_multi_snoops        21918                       # Number of snoops hitting in the snoop filter with multiple (>1) holders of the requested data.
system.tol2bus.pwrStateResidencyTicks::UNDEFINED 3739148452000                       # Cumulative time (in ticks) in various power states
system.tol2bus.trans_dist::ReadReq           24759919                       # Transaction distribution
system.tol2bus.trans_dist::ReadResp          51389979                       # Transaction distribution
system.tol2bus.trans_dist::WriteReq              5268                       # Transaction distribution
system.tol2bus.trans_dist::WriteResp             5268                       # Transaction distribution
system.tol2bus.trans_dist::WritebackDirty     20104978                       # Transaction distribution
system.tol2bus.trans_dist::WritebackClean     14511878                       # Transaction distribution
system.tol2bus.trans_dist::CleanEvict        10809517                       # Transaction distribution
system.tol2bus.trans_dist::UpgradeReq          134865                       # Transaction distribution
system.tol2bus.trans_dist::SCUpgradeReq         17195                       # Transaction distribution
system.tol2bus.trans_dist::UpgradeResp         152060                       # Transaction distribution
system.tol2bus.trans_dist::SCUpgradeFailReq           74                       # Transaction distribution
system.tol2bus.trans_dist::UpgradeFailResp           74                       # Transaction distribution
system.tol2bus.trans_dist::ReadExReq          7368448                       # Transaction distribution
system.tol2bus.trans_dist::ReadExResp         7368448                       # Transaction distribution
system.tol2bus.trans_dist::ReadCleanReq      14512025                       # Transaction distribution
system.tol2bus.trans_dist::ReadSharedReq     12118057                       # Transaction distribution
system.tol2bus.trans_dist::InvalidateReq         6200                       # Transaction distribution
system.tol2bus.pkt_count_system.cpu0.icache.mem_side::system.l2.cpu_side      2136135                       # Packet count per connected master and slave (bytes)
system.tol2bus.pkt_count_system.cpu0.dcache.mem_side::system.l2.cpu_side     34886698                       # Packet count per connected master and slave (bytes)
system.tol2bus.pkt_count_system.cpu0.itb.walker.dma::system.l2.cpu_side        26858                       # Packet count per connected master and slave (bytes)
system.tol2bus.pkt_count_system.cpu0.dtb.walker.dma::system.l2.cpu_side     43056773                       # Packet count per connected master and slave (bytes)
system.tol2bus.pkt_count_system.cpu1.icache.mem_side::system.l2.cpu_side      5636687                       # Packet count per connected master and slave (bytes)
system.tol2bus.pkt_count_system.cpu1.dcache.mem_side::system.l2.cpu_side      1086353                       # Packet count per connected master and slave (bytes)
system.tol2bus.pkt_count_system.cpu1.itb.walker.dma::system.l2.cpu_side      2275074                       # Packet count per connected master and slave (bytes)
system.tol2bus.pkt_count_system.cpu1.dtb.walker.dma::system.l2.cpu_side       370776                       # Packet count per connected master and slave (bytes)
system.tol2bus.pkt_count_system.cpu2.icache.mem_side::system.l2.cpu_side      5746558                       # Packet count per connected master and slave (bytes)
system.tol2bus.pkt_count_system.cpu2.dcache.mem_side::system.l2.cpu_side     22113135                       # Packet count per connected master and slave (bytes)
system.tol2bus.pkt_count_system.cpu2.itb.walker.dma::system.l2.cpu_side        21414                       # Packet count per connected master and slave (bytes)
system.tol2bus.pkt_count_system.cpu2.dtb.walker.dma::system.l2.cpu_side      1055629                       # Packet count per connected master and slave (bytes)
system.tol2bus.pkt_count_system.cpu3.icache.mem_side::system.l2.cpu_side     30016436                       # Packet count per connected master and slave (bytes)
system.tol2bus.pkt_count_system.cpu3.dcache.mem_side::system.l2.cpu_side       582321                       # Packet count per connected master and slave (bytes)
system.tol2bus.pkt_count_system.cpu3.itb.walker.dma::system.l2.cpu_side        35041                       # Packet count per connected master and slave (bytes)
system.tol2bus.pkt_count_system.cpu3.dtb.walker.dma::system.l2.cpu_side      1848633                       # Packet count per connected master and slave (bytes)
system.tol2bus.pkt_count::total             150894521                       # Packet count per connected master and slave (bytes)
system.tol2bus.pkt_size_system.cpu0.icache.mem_side::system.l2.cpu_side     91141184                       # Cumulative packet size per connected master and slave (bytes)
system.tol2bus.pkt_size_system.cpu0.dcache.mem_side::system.l2.cpu_side   1035022810                       # Cumulative packet size per connected master and slave (bytes)
system.tol2bus.pkt_size_system.cpu0.itb.walker.dma::system.l2.cpu_side        48356                       # Cumulative packet size per connected master and slave (bytes)
system.tol2bus.pkt_size_system.cpu0.dtb.walker.dma::system.l2.cpu_side     86095244                       # Cumulative packet size per connected master and slave (bytes)
system.tol2bus.pkt_size_system.cpu1.icache.mem_side::system.l2.cpu_side    240497088                       # Cumulative packet size per connected master and slave (bytes)
system.tol2bus.pkt_size_system.cpu1.dcache.mem_side::system.l2.cpu_side     38331160                       # Cumulative packet size per connected master and slave (bytes)
system.tol2bus.pkt_size_system.cpu1.itb.walker.dma::system.l2.cpu_side      4532984                       # Cumulative packet size per connected master and slave (bytes)
system.tol2bus.pkt_size_system.cpu1.dtb.walker.dma::system.l2.cpu_side       698564                       # Cumulative packet size per connected master and slave (bytes)
system.tol2bus.pkt_size_system.cpu2.icache.mem_side::system.l2.cpu_side    245184000                       # Cumulative packet size per connected master and slave (bytes)
system.tol2bus.pkt_size_system.cpu2.dcache.mem_side::system.l2.cpu_side    925066904                       # Cumulative packet size per connected master and slave (bytes)
system.tol2bus.pkt_size_system.cpu2.itb.walker.dma::system.l2.cpu_side        27428                       # Cumulative packet size per connected master and slave (bytes)
system.tol2bus.pkt_size_system.cpu2.dtb.walker.dma::system.l2.cpu_side       613820                       # Cumulative packet size per connected master and slave (bytes)
system.tol2bus.pkt_size_system.cpu3.icache.mem_side::system.l2.cpu_side   1280700352                       # Cumulative packet size per connected master and slave (bytes)
system.tol2bus.pkt_size_system.cpu3.dcache.mem_side::system.l2.cpu_side     18736475                       # Cumulative packet size per connected master and slave (bytes)
system.tol2bus.pkt_size_system.cpu3.itb.walker.dma::system.l2.cpu_side        59060                       # Cumulative packet size per connected master and slave (bytes)
system.tol2bus.pkt_size_system.cpu3.dtb.walker.dma::system.l2.cpu_side      3663124                       # Cumulative packet size per connected master and slave (bytes)
system.tol2bus.pkt_size::total             3970418553                       # Cumulative packet size per connected master and slave (bytes)
system.tol2bus.snoops                        12370712                       # Total snoops (count)
system.tol2bus.snoopTraffic                 520073520                       # Total snoop traffic (bytes)
system.tol2bus.snoop_fanout::samples         70392389                       # Request fanout histogram
system.tol2bus.snoop_fanout::mean            0.045613                       # Request fanout histogram
system.tol2bus.snoop_fanout::stdev           0.239565                       # Request fanout histogram
system.tol2bus.snoop_fanout::underflows             0      0.00%      0.00% # Request fanout histogram
system.tol2bus.snoop_fanout::0               67562447     95.98%     95.98% # Request fanout histogram
system.tol2bus.snoop_fanout::1                2537961      3.61%     99.59% # Request fanout histogram
system.tol2bus.snoop_fanout::2                 215037      0.31%     99.89% # Request fanout histogram
system.tol2bus.snoop_fanout::3                  69548      0.10%     99.99% # Request fanout histogram
system.tol2bus.snoop_fanout::4                   4281      0.01%    100.00% # Request fanout histogram
system.tol2bus.snoop_fanout::5                   2025      0.00%    100.00% # Request fanout histogram
system.tol2bus.snoop_fanout::6                    784      0.00%    100.00% # Request fanout histogram
system.tol2bus.snoop_fanout::7                    306      0.00%    100.00% # Request fanout histogram
system.tol2bus.snoop_fanout::8                      0      0.00%    100.00% # Request fanout histogram
system.tol2bus.snoop_fanout::overflows              0      0.00%    100.00% # Request fanout histogram
system.tol2bus.snoop_fanout::min_value              0                       # Request fanout histogram
system.tol2bus.snoop_fanout::max_value              7                       # Request fanout histogram
system.tol2bus.snoop_fanout::total           70392389                       # Request fanout histogram
system.tol2bus.reqLayer0.occupancy        73026536856                       # Layer occupancy (ticks)
system.tol2bus.reqLayer0.utilization             14.5                       # Layer utilization (%)
system.tol2bus.snoopLayer0.occupancy          1571048                       # Layer occupancy (ticks)
system.tol2bus.snoopLayer0.utilization            0.0                       # Layer utilization (%)
system.tol2bus.respLayer0.occupancy        1071582736                       # Layer occupancy (ticks)
system.tol2bus.respLayer0.utilization             0.2                       # Layer utilization (%)
system.tol2bus.respLayer1.occupancy       17551772393                       # Layer occupancy (ticks)
system.tol2bus.respLayer1.utilization             3.5                       # Layer utilization (%)
system.tol2bus.respLayer2.occupancy          14847336                       # Layer occupancy (ticks)
system.tol2bus.respLayer2.utilization             0.0                       # Layer utilization (%)
system.tol2bus.respLayer3.occupancy       21561883138                       # Layer occupancy (ticks)
system.tol2bus.respLayer3.utilization             4.3                       # Layer utilization (%)
system.tol2bus.respLayer4.occupancy        2825139857                       # Layer occupancy (ticks)
system.tol2bus.respLayer4.utilization             0.6                       # Layer utilization (%)
system.tol2bus.respLayer5.occupancy         557217246                       # Layer occupancy (ticks)
system.tol2bus.respLayer5.utilization             0.1                       # Layer utilization (%)
system.tol2bus.respLayer6.occupancy        1143893686                       # Layer occupancy (ticks)
system.tol2bus.respLayer6.utilization             0.2                       # Layer utilization (%)
system.tol2bus.respLayer7.occupancy         196937832                       # Layer occupancy (ticks)
system.tol2bus.respLayer7.utilization             0.0                       # Layer utilization (%)
system.tol2bus.respLayer8.occupancy        2878198037                       # Layer occupancy (ticks)
system.tol2bus.respLayer8.utilization             0.6                       # Layer utilization (%)
system.tol2bus.respLayer9.occupancy       11203216096                       # Layer occupancy (ticks)
system.tol2bus.respLayer9.utilization             2.2                       # Layer utilization (%)
system.tol2bus.respLayer10.occupancy         14619371                       # Layer occupancy (ticks)
system.tol2bus.respLayer10.utilization            0.0                       # Layer utilization (%)
system.tol2bus.respLayer11.occupancy        902736342                       # Layer occupancy (ticks)
system.tol2bus.respLayer11.utilization            0.2                       # Layer utilization (%)
system.tol2bus.respLayer12.occupancy      15021289328                       # Layer occupancy (ticks)
system.tol2bus.respLayer12.utilization            3.0                       # Layer utilization (%)
system.tol2bus.respLayer13.occupancy        301975061                       # Layer occupancy (ticks)
system.tol2bus.respLayer13.utilization            0.1                       # Layer utilization (%)
system.tol2bus.respLayer14.occupancy         20362823                       # Layer occupancy (ticks)
system.tol2bus.respLayer14.utilization            0.0                       # Layer utilization (%)
system.tol2bus.respLayer15.occupancy        934266083                       # Layer occupancy (ticks)
system.tol2bus.respLayer15.utilization            0.2                       # Layer utilization (%)
system.switch_cpus0.kern.inst.arm                   0                       # number of arm instructions executed
system.switch_cpus0.kern.inst.quiesce               0                       # number of quiesce instructions executed
system.switch_cpus1.kern.inst.arm                   0                       # number of arm instructions executed
system.switch_cpus1.kern.inst.quiesce               0                       # number of quiesce instructions executed
system.switch_cpus2.kern.inst.arm                   0                       # number of arm instructions executed
system.switch_cpus2.kern.inst.quiesce               0                       # number of quiesce instructions executed
system.switch_cpus3.kern.inst.arm                   0                       # number of arm instructions executed
system.switch_cpus3.kern.inst.quiesce               0                       # number of quiesce instructions executed

---------- End Simulation Statistics   ----------
